<?xml version="1.0" encoding="utf-8"?>
<!DOCTYPE population SYSTEM "http://www.matsim.org/files/dtd/population_v6.dtd">

<population>



<!-- ====================================================================== -->

	<person id="1740304">
		<attributes>
			<attribute name="age" class="java.lang.String" >20</attribute>
			<attribute name="household_id" class="java.lang.String" >602716</attribute>
			<attribute name="sex" class="java.lang.String" >2</attribute>
		</attributes>
		<plan selected="yes">
			<activity type="home" facility="h602716" x="439266.97612927866" y="4461473.690614623" end_time="09:43:47" >
			</activity>
			<leg mode="walk">
			</leg>
			<activity type="work" facility="91154" x="438246.52580770093" y="4458468.900117955" end_time="16:25:06" >
			</activity>
			<leg mode="walk">
			</leg>
			<activity type="home" facility="h602716" x="439266.97612927866" y="4461473.690614623" >
			</activity>
		</plan>

	</person>

<!-- ====================================================================== -->

	<person id="1741707">
		<attributes>
			<attribute name="age" class="java.lang.String" >49</attribute>
			<attribute name="household_id" class="java.lang.String" >603027</attribute>
			<attribute name="sex" class="java.lang.String" >2</attribute>
		</attributes>
		<plan selected="yes">
			<activity type="home" facility="h603027" x="439947.0718941088" y="4461047.639579796" end_time="11:18:29" >
			</activity>
			<leg mode="walk">
			</leg>
			<activity type="work" facility="93089" x="439146.54014141794" y="4460963.040558607" end_time="13:40:11" >
			</activity>
			<leg mode="walk">
			</leg>
			<activity type="home" facility="h603027" x="439947.0718941088" y="4461047.639579796" >
			</activity>
		</plan>

	</person>

<!-- ====================================================================== -->

	<person id="1753760">
		<attributes>
			<attribute name="age" class="java.lang.String" >0</attribute>
			<attribute name="household_id" class="java.lang.String" >606989</attribute>
			<attribute name="sex" class="java.lang.String" >1</attribute>
		</attributes>
		<plan selected="yes">
			<activity type="home" facility="h606989" x="440087.068151825" y="4460753.129724848" end_time="07:44:06" >
			</activity>
			<leg mode="car">
			</leg>
			<activity type="work" facility="94531" x="442020.58837454463" y="4457886.269612704" end_time="13:37:30" >
			</activity>
			<leg mode="car">
			</leg>
			<activity type="home" facility="h606989" x="440087.068151825" y="4460753.129724848" >
			</activity>
		</plan>

	</person>

<!-- ====================================================================== -->

	<person id="1756027">
		<attributes>
			<attribute name="age" class="java.lang.String" >24</attribute>
			<attribute name="household_id" class="java.lang.String" >607767</attribute>
			<attribute name="sex" class="java.lang.String" >2</attribute>
		</attributes>
		<plan selected="yes">
			<activity type="home" facility="h607767" x="438391.25028542965" y="4459877.069803656" end_time="08:15:59" >
			</activity>
			<leg mode="car">
			</leg>
			<activity type="work" facility="96238" x="444940.3328323355" y="4454438.420218043" end_time="17:53:43" >
			</activity>
			<leg mode="car">
			</leg>
			<activity type="work" facility="96134" x="444406.09113928187" y="4455036.14043388" end_time="18:55:27" >
			</activity>
			<leg mode="car">
			</leg>
			<activity type="home" facility="h607767" x="438391.25028542965" y="4459877.069803656" >
			</activity>
		</plan>

	</person>

<!-- ====================================================================== -->

	<person id="1772342">
		<attributes>
			<attribute name="age" class="java.lang.String" >24</attribute>
			<attribute name="household_id" class="java.lang.String" >613075</attribute>
			<attribute name="sex" class="java.lang.String" >1</attribute>
		</attributes>
		<plan selected="yes">
			<activity type="home" facility="h613075" x="440808.8833659644" y="4461715.209626245" end_time="07:04:22" >
			</activity>
			<leg mode="car">
			</leg>
			<activity type="work" facility="92565" x="439831.8576120386" y="4461606.400317179" end_time="19:20:20" >
			</activity>
			<leg mode="car">
			</leg>
			<activity type="home" facility="h613075" x="440808.8833659644" y="4461715.209626245" >
			</activity>
		</plan>

	</person>

<!-- ====================================================================== -->

	<person id="1773280">
		<attributes>
			<attribute name="age" class="java.lang.String" >21</attribute>
			<attribute name="household_id" class="java.lang.String" >613305</attribute>
			<attribute name="sex" class="java.lang.String" >2</attribute>
		</attributes>
		<plan selected="yes">
			<activity type="home" facility="h613305" x="440815.77131481597" y="4459250.010515749" end_time="08:48:29" >
			</activity>
			<leg mode="car">
			</leg>
			<activity type="work" facility="93877" x="441202.66212396947" y="4460764.490285667" end_time="08:47:14" >
			</activity>
			<leg mode="car">
			</leg>
			<activity type="home" facility="h613305" x="440815.77131481597" y="4459250.010515749" >
			</activity>
		</plan>

	</person>

<!-- ====================================================================== -->

	<person id="1774506">
		<attributes>
			<attribute name="age" class="java.lang.String" >52</attribute>
			<attribute name="household_id" class="java.lang.String" >613787</attribute>
			<attribute name="sex" class="java.lang.String" >2</attribute>
		</attributes>
		<plan selected="yes">
			<activity type="home" facility="h613787" x="441188.20956051885" y="4458507.189666795" end_time="16:56:11" >
			</activity>
			<leg mode="walk">
			</leg>
			<activity type="work" facility="96572" x="443159.98827793845" y="4454782.880027447" end_time="18:03:08" >
			</activity>
			<leg mode="walk">
			</leg>
			<activity type="home" facility="h613787" x="441188.20956051885" y="4458507.189666795" end_time="09:46:27" >
			</activity>
			<leg mode="walk">
			</leg>
			<activity type="work" facility="93971" x="442255.59228969103" y="4459341.740477369" end_time="15:04:12" >
			</activity>
			<leg mode="walk">
			</leg>
			<activity type="home" facility="h613787" x="441188.20956051885" y="4458507.189666795" >
			</activity>
		</plan>

	</person>

<!-- ====================================================================== -->

	<person id="1777268">
		<attributes>
			<attribute name="age" class="java.lang.String" >0</attribute>
			<attribute name="household_id" class="java.lang.String" >614667</attribute>
			<attribute name="sex" class="java.lang.String" >2</attribute>
		</attributes>
		<plan selected="yes">
			<activity type="home" facility="h614667" x="442008.5312431721" y="4460784.959987053" end_time="14:22:35" >
			</activity>
			<leg mode="walk">
			</leg>
			<activity type="work" facility="93933" x="441588.4373836375" y="4459426.259712887" end_time="21:25:22" >
			</activity>
			<leg mode="walk">
			</leg>
			<activity type="home" facility="h614667" x="442008.5312431721" y="4460784.959987053" >
			</activity>
		</plan>

	</person>

<!-- ====================================================================== -->

	<person id="1777419">
		<attributes>
			<attribute name="age" class="java.lang.String" >3</attribute>
			<attribute name="household_id" class="java.lang.String" >614705</attribute>
			<attribute name="sex" class="java.lang.String" >1</attribute>
		</attributes>
		<plan selected="yes">
			<activity type="home" facility="h614705" x="442016.3588782082" y="4460878.700129655" end_time="08:00:39" >
			</activity>
			<leg mode="pt">
			</leg>
			<activity type="work" facility="94829" x="444806.78135528276" y="4458745.310236961" end_time="16:54:11" >
			</activity>
			<leg mode="pt">
			</leg>
			<activity type="home" facility="h614705" x="442016.3588782082" y="4460878.700129655" >
			</activity>
		</plan>

	</person>

<!-- ====================================================================== -->

	<person id="1777728">
		<attributes>
			<attribute name="age" class="java.lang.String" >4</attribute>
			<attribute name="household_id" class="java.lang.String" >614771</attribute>
			<attribute name="sex" class="java.lang.String" >2</attribute>
		</attributes>
		<plan selected="yes">
			<activity type="home" facility="h614771" x="441832.2205536191" y="4460893.589705543" end_time="11:34:17" >
			</activity>
			<leg mode="pt">
			</leg>
			<activity type="work" facility="94558" x="443799.7233968593" y="4461872.84049566" end_time="16:00:31" >
			</activity>
			<leg mode="car">
			</leg>
			<activity type="home" facility="h614771" x="441832.2205536191" y="4460893.589705543" >
			</activity>
		</plan>

	</person>

<!-- ====================================================================== -->

	<person id="1779918">
		<attributes>
			<attribute name="age" class="java.lang.String" >0</attribute>
			<attribute name="household_id" class="java.lang.String" >615557</attribute>
			<attribute name="sex" class="java.lang.String" >1</attribute>
		</attributes>
		<plan selected="yes">
			<activity type="home" facility="h615557" x="442532.7077822724" y="4460601.610127656" end_time="10:25:24" >
			</activity>
			<leg mode="car">
			</leg>
			<activity type="work" facility="96404" x="443183.7378667518" y="4455665.870310814" end_time="20:01:24" >
			</activity>
			<leg mode="car">
			</leg>
			<activity type="work" facility="96234" x="444925.14364130766" y="4454398.159691815" end_time="21:58:01" >
			</activity>
			<leg mode="car">
			</leg>
			<activity type="home" facility="h615557" x="442532.7077822724" y="4460601.610127656" >
			</activity>
		</plan>

	</person>

<!-- ====================================================================== -->

	<person id="1781726">
		<attributes>
			<attribute name="age" class="java.lang.String" >27</attribute>
			<attribute name="household_id" class="java.lang.String" >616102</attribute>
			<attribute name="sex" class="java.lang.String" >1</attribute>
		</attributes>
		<plan selected="yes">
			<activity type="home" facility="h616102" x="441695.8002037123" y="4459660.3305313" end_time="05:20:21" >
			</activity>
			<leg mode="pt">
			</leg>
			<activity type="work" facility="94941" x="443791.93279689254" y="4457167.150080803" end_time="05:37:12" >
			</activity>
			<leg mode="walk">
			</leg>
			<activity type="work" facility="94963" x="443955.23799966485" y="4456794.31960476" end_time="16:59:49" >
			</activity>
			<leg mode="pt">
			</leg>
			<activity type="home" facility="h616102" x="441695.8002037123" y="4459660.3305313" >
			</activity>
		</plan>

	</person>

<!-- ====================================================================== -->

	<person id="1782178">
		<attributes>
			<attribute name="age" class="java.lang.String" >23</attribute>
			<attribute name="household_id" class="java.lang.String" >616294</attribute>
			<attribute name="sex" class="java.lang.String" >1</attribute>
		</attributes>
		<plan selected="yes">
			<activity type="home" facility="h616294" x="441501.221681109" y="4460061.9201500835" end_time="09:12:55" >
			</activity>
			<leg mode="car">
			</leg>
			<activity type="work" facility="94737" x="444970.99924026104" y="4459850.240288989" end_time="18:14:15" >
			</activity>
			<leg mode="car">
			</leg>
			<activity type="home" facility="h616294" x="441501.221681109" y="4460061.9201500835" >
			</activity>
		</plan>

	</person>

<!-- ====================================================================== -->

	<person id="1782700">
		<attributes>
			<attribute name="age" class="java.lang.String" >25</attribute>
			<attribute name="household_id" class="java.lang.String" >616543</attribute>
			<attribute name="sex" class="java.lang.String" >2</attribute>
		</attributes>
		<plan selected="yes">
			<activity type="home" facility="h616543" x="440562.45232781675" y="4459905.839542552" end_time="06:08:53" >
			</activity>
			<leg mode="bike">
			</leg>
			<activity type="work" facility="94978" x="443959.89962358057" y="4457080.489606016" end_time="16:54:26" >
			</activity>
			<leg mode="bike">
			</leg>
			<activity type="home" facility="h616543" x="440562.45232781675" y="4459905.839542552" >
			</activity>
		</plan>

	</person>

<!-- ====================================================================== -->

	<person id="1787214">
		<attributes>
			<attribute name="age" class="java.lang.String" >4</attribute>
			<attribute name="household_id" class="java.lang.String" >618139</attribute>
			<attribute name="sex" class="java.lang.String" >2</attribute>
		</attributes>
		<plan selected="yes">
			<activity type="home" facility="h618139" x="443004.92317698634" y="4459402.8796735965" end_time="11:39:47" >
			</activity>
			<leg mode="pt">
			</leg>
			<activity type="work" facility="96370" x="441951.6338182996" y="4455168.44984388" end_time="14:52:14" >
			</activity>
			<leg mode="pt">
			</leg>
			<activity type="work" facility="94721" x="444088.49110424274" y="4460234.190621396" end_time="13:39:43" >
			</activity>
			<leg mode="pt">
			</leg>
			<activity type="work" facility="94879" x="443326.0567319593" y="4457514.19993304" end_time="14:45:46" >
			</activity>
			<leg mode="pt">
			</leg>
			<activity type="home" facility="h618139" x="443004.92317698634" y="4459402.8796735965" >
			</activity>
		</plan>

	</person>

<!-- ====================================================================== -->

	<person id="1787334">
		<attributes>
			<attribute name="age" class="java.lang.String" >57</attribute>
			<attribute name="household_id" class="java.lang.String" >618193</attribute>
			<attribute name="sex" class="java.lang.String" >2</attribute>
		</attributes>
		<plan selected="yes">
			<activity type="home" facility="h618193" x="442619.90199375857" y="4459440.550172991" end_time="09:55:52" >
			</activity>
			<leg mode="car">
			</leg>
			<activity type="work" facility="94715" x="444038.00943834137" y="4460878.229926246" end_time="10:08:50" >
			</activity>
			<leg mode="car">
			</leg>
			<activity type="home" facility="h618193" x="442619.90199375857" y="4459440.550172991" >
			</activity>
		</plan>

	</person>

<!-- ====================================================================== -->

	<person id="2005269">
		<attributes>
			<attribute name="age" class="java.lang.String" >71</attribute>
			<attribute name="household_id" class="java.lang.String" >681760</attribute>
			<attribute name="sex" class="java.lang.String" >2</attribute>
		</attributes>
		<plan selected="yes">
			<activity type="home" facility="h681760" x="441034.134020213" y="4458231.518621141" end_time="09:00:31" >
			</activity>
			<leg mode="car">
			</leg>
			<activity type="work" facility="97172" x="442358.3272222892" y="4451647.960060058" end_time="10:42:38" >
			</activity>
			<leg mode="car">
			</leg>
			<activity type="work" facility="95072" x="442468.9794560791" y="4456734.010465354" end_time="15:43:58" >
			</activity>
			<leg mode="walk">
			</leg>
			<activity type="work" facility="95082" x="442472.1110641072" y="4456681.899543683" end_time="20:54:08" >
			</activity>
			<leg mode="car">
			</leg>
			<activity type="home" facility="h681760" x="441034.134020213" y="4458231.518621141" >
			</activity>
		</plan>

	</person>

<!-- ====================================================================== -->

	<person id="2008986">
		<attributes>
			<attribute name="age" class="java.lang.String" >46</attribute>
			<attribute name="household_id" class="java.lang.String" >682736</attribute>
			<attribute name="sex" class="java.lang.String" >2</attribute>
		</attributes>
		<plan selected="yes">
			<activity type="home" facility="h682736" x="446004.0195237089" y="4460505.849793783" end_time="10:45:34" >
			</activity>
			<leg mode="car">
			</leg>
			<activity type="work" facility="94739" x="445531.1922715925" y="4460228.97984413" end_time="12:04:14" >
			</activity>
			<leg mode="car">
			</leg>
			<activity type="home" facility="h682736" x="446004.0195237089" y="4460505.849793783" >
			</activity>
		</plan>

	</person>

<!-- ====================================================================== -->

	<person id="2012477">
		<attributes>
			<attribute name="age" class="java.lang.String" >36</attribute>
			<attribute name="household_id" class="java.lang.String" >683812</attribute>
			<attribute name="sex" class="java.lang.String" >2</attribute>
		</attributes>
		<plan selected="yes">
			<activity type="home" facility="h683812" x="444303.2091529231" y="4459491.97956068" end_time="13:45:11" >
			</activity>
			<leg mode="walk">
			</leg>
			<activity type="work" facility="96212" x="444145.3333779145" y="4454317.539612439" end_time="14:50:45" >
			</activity>
			<leg mode="walk">
			</leg>
			<activity type="home" facility="h683812" x="444303.2091529231" y="4459491.97956068" >
			</activity>
		</plan>

	</person>

<!-- ====================================================================== -->

	<person id="2012765">
		<attributes>
			<attribute name="age" class="java.lang.String" >15</attribute>
			<attribute name="household_id" class="java.lang.String" >683868</attribute>
			<attribute name="sex" class="java.lang.String" >1</attribute>
		</attributes>
		<plan selected="yes">
			<activity type="home" facility="h683868" x="444174.22097573825" y="4459643.150374611" end_time="07:35:56" >
			</activity>
			<leg mode="pt">
			</leg>
			<activity type="work" facility="96245" x="445262.6336865433" y="4454703.099865858" end_time="14:07:01" >
			</activity>
			<leg mode="pt">
			</leg>
			<activity type="home" facility="h683868" x="444174.22097573825" y="4459643.150374611" >
			</activity>
		</plan>

	</person>

<!-- ====================================================================== -->

	<person id="2012899">
		<attributes>
			<attribute name="age" class="java.lang.String" >41</attribute>
			<attribute name="household_id" class="java.lang.String" >683892</attribute>
			<attribute name="sex" class="java.lang.String" >1</attribute>
		</attributes>
		<plan selected="yes">
			<activity type="home" facility="h683892" x="444076.4571952814" y="4459541.910455294" end_time="09:32:33" >
			</activity>
			<leg mode="bike">
			</leg>
			<activity type="work" facility="97064" x="440961.7790749462" y="4453640.839676828" end_time="19:44:35" >
			</activity>
			<leg mode="bike">
			</leg>
			<activity type="home" facility="h683892" x="444076.4571952814" y="4459541.910455294" >
			</activity>
		</plan>

	</person>

<!-- ====================================================================== -->

	<person id="2013386">
		<attributes>
			<attribute name="age" class="java.lang.String" >21</attribute>
			<attribute name="household_id" class="java.lang.String" >684024</attribute>
			<attribute name="sex" class="java.lang.String" >2</attribute>
		</attributes>
		<plan selected="yes">
			<activity type="home" facility="h684024" x="444266.25007281307" y="4459452.239703274" end_time="10:42:21" >
			</activity>
			<leg mode="walk">
			</leg>
			<activity type="work" facility="96232" x="444925.8962155774" y="4454437.160267465" end_time="11:05:30" >
			</activity>
			<leg mode="walk">
			</leg>
			<activity type="work" facility="96219" x="444097.3333681962" y="4454330.760259196" end_time="18:01:32" >
			</activity>
			<leg mode="walk">
			</leg>
			<activity type="home" facility="h684024" x="444266.25007281307" y="4459452.239703274" >
			</activity>
		</plan>

	</person>

<!-- ====================================================================== -->

	<person id="2017035">
		<attributes>
			<attribute name="age" class="java.lang.String" >42</attribute>
			<attribute name="household_id" class="java.lang.String" >685200</attribute>
			<attribute name="sex" class="java.lang.String" >2</attribute>
		</attributes>
		<plan selected="yes">
			<activity type="home" facility="h685200" x="441456.44954281155" y="4457814.740092303" end_time="15:08:20" >
			</activity>
			<leg mode="car">
			</leg>
			<activity type="work" facility="94871" x="445880.94738093513" y="4458331.9205523245" end_time="17:46:41" >
			</activity>
			<leg mode="car">
			</leg>
			<activity type="home" facility="h685200" x="441456.44954281155" y="4457814.740092303" >
			</activity>
		</plan>

	</person>

<!-- ====================================================================== -->

	<person id="2017336">
		<attributes>
			<attribute name="age" class="java.lang.String" >52</attribute>
			<attribute name="household_id" class="java.lang.String" >685258</attribute>
			<attribute name="sex" class="java.lang.String" >2</attribute>
		</attributes>
		<plan selected="yes">
			<activity type="home" facility="h685258" x="441172.9083002693" y="4457929.22029403" end_time="08:05:15" >
			</activity>
			<leg mode="car">
			</leg>
			<activity type="work" facility="97168" x="442315.64125948906" y="4452457.68059066" end_time="12:47:30" >
			</activity>
			<leg mode="car">
			</leg>
			<activity type="home" facility="h685258" x="441172.9083002693" y="4457929.22029403" end_time="13:36:33" >
			</activity>
			<leg mode="car">
			</leg>
			<activity type="work" facility="93935" x="441488.27782582387" y="4459411.150228745" end_time="13:56:55" >
			</activity>
			<leg mode="car">
			</leg>
			<activity type="work" facility="97168" x="442315.64125948906" y="4452457.68059066" end_time="16:48:00" >
			</activity>
			<leg mode="car">
			</leg>
			<activity type="home" facility="h685258" x="441172.9083002693" y="4457929.22029403" >
			</activity>
		</plan>

	</person>

<!-- ====================================================================== -->

	<person id="2023531">
		<attributes>
			<attribute name="age" class="java.lang.String" >61</attribute>
			<attribute name="household_id" class="java.lang.String" >687017</attribute>
			<attribute name="sex" class="java.lang.String" >2</attribute>
		</attributes>
		<plan selected="yes">
			<activity type="home" facility="h687017" x="444033.0168504969" y="4461900.882143599" end_time="11:25:16" >
			</activity>
			<leg mode="car">
			</leg>
			<activity type="work" facility="93540" x="441017.6228038855" y="4460131.750603557" end_time="12:00:17" >
			</activity>
			<leg mode="car">
			</leg>
			<activity type="work" facility="93621" x="441127.34672904416" y="4459862.130514487" end_time="12:50:07" >
			</activity>
			<leg mode="car">
			</leg>
			<activity type="home" facility="h687017" x="444033.0168504969" y="4461900.882143599" >
			</activity>
		</plan>

	</person>

<!-- ====================================================================== -->

	<person id="2026825">
		<attributes>
			<attribute name="age" class="java.lang.String" >24</attribute>
			<attribute name="household_id" class="java.lang.String" >687795</attribute>
			<attribute name="sex" class="java.lang.String" >2</attribute>
		</attributes>
		<plan selected="yes">
			<activity type="home" facility="h687795" x="443725.7017779929" y="4461554.458326248" end_time="08:07:40" >
			</activity>
			<leg mode="car">
			</leg>
			<activity type="work" facility="94213" x="440679.32777635276" y="4457676.000523793" end_time="08:14:20" >
			</activity>
			<leg mode="car">
			</leg>
			<activity type="home" facility="h687795" x="443725.7017779929" y="4461554.458326248" >
			</activity>
		</plan>

	</person>

<!-- ====================================================================== -->

	<person id="2027601">
		<attributes>
			<attribute name="age" class="java.lang.String" >17</attribute>
			<attribute name="household_id" class="java.lang.String" >688065</attribute>
			<attribute name="sex" class="java.lang.String" >1</attribute>
		</attributes>
		<plan selected="yes">
			<activity type="home" facility="h688065" x="444338.75670403853" y="4457941.330557304" end_time="15:05:22" >
			</activity>
			<leg mode="walk">
			</leg>
			<activity type="work" facility="94739" x="445531.1922715925" y="4460228.97984413" end_time="17:15:04" >
			</activity>
			<leg mode="walk">
			</leg>
			<activity type="home" facility="h688065" x="444338.75670403853" y="4457941.330557304" >
			</activity>
		</plan>

	</person>

<!-- ====================================================================== -->

	<person id="2030457">
		<attributes>
			<attribute name="age" class="java.lang.String" >22</attribute>
			<attribute name="household_id" class="java.lang.String" >688897</attribute>
			<attribute name="sex" class="java.lang.String" >1</attribute>
		</attributes>
		<plan selected="yes">
			<activity type="home" facility="h688897" x="444376.1502597891" y="4460734.029734861" end_time="12:08:04" >
			</activity>
			<leg mode="walk">
			</leg>
			<activity type="work" facility="94944" x="443795.5920917006" y="4457007.840629761" end_time="15:30:00" >
			</activity>
			<leg mode="pt">
			</leg>
			<activity type="work" facility="91158" x="439846.1865759403" y="4456991.380278969" end_time="15:28:43" >
			</activity>
			<leg mode="pt">
			</leg>
			<activity type="home" facility="h688897" x="444376.1502597891" y="4460734.029734861" >
			</activity>
		</plan>

	</person>

<!-- ====================================================================== -->

	<person id="2033991">
		<attributes>
			<attribute name="age" class="java.lang.String" >2</attribute>
			<attribute name="household_id" class="java.lang.String" >690107</attribute>
			<attribute name="sex" class="java.lang.String" >1</attribute>
		</attributes>
		<plan selected="yes">
			<activity type="home" facility="h690107" x="444970.82748056506" y="4458036.649683176" end_time="07:48:31" >
			</activity>
			<leg mode="pt">
			</leg>
			<activity type="work" facility="94699" x="443688.08409358317" y="4460929.239801609" end_time="16:12:06" >
			</activity>
			<leg mode="pt">
			</leg>
			<activity type="home" facility="h690107" x="444970.82748056506" y="4458036.649683176" >
			</activity>
		</plan>

	</person>

<!-- ====================================================================== -->

	<person id="2036337">
		<attributes>
			<attribute name="age" class="java.lang.String" >71</attribute>
			<attribute name="household_id" class="java.lang.String" >690954</attribute>
			<attribute name="sex" class="java.lang.String" >2</attribute>
		</attributes>
		<plan selected="yes">
			<activity type="home" facility="h690954" x="444736.85282189434" y="4457493.079665356" end_time="17:00:39" >
			</activity>
			<leg mode="walk">
			</leg>
			<activity type="work" facility="95079" x="442479.0730507518" y="4456665.899739793" end_time="20:43:32" >
			</activity>
			<leg mode="walk">
			</leg>
			<activity type="home" facility="h690954" x="444736.85282189434" y="4457493.079665356" >
			</activity>
		</plan>

	</person>

<!-- ====================================================================== -->

	<person id="2036934">
		<attributes>
			<attribute name="age" class="java.lang.String" >35</attribute>
			<attribute name="household_id" class="java.lang.String" >691051</attribute>
			<attribute name="sex" class="java.lang.String" >2</attribute>
		</attributes>
		<plan selected="yes">
			<activity type="home" facility="h691051" x="444862.4194092794" y="4457647.460270087" end_time="09:55:13" >
			</activity>
			<leg mode="car">
			</leg>
			<activity type="work" facility="96629" x="441492.71205311315" y="4454440.529949127" end_time="14:44:10" >
			</activity>
			<leg mode="car">
			</leg>
			<activity type="home" facility="h691051" x="444862.4194092794" y="4457647.460270087" >
			</activity>
		</plan>

	</person>

<!-- ====================================================================== -->

	<person id="2039928">
		<attributes>
			<attribute name="age" class="java.lang.String" >58</attribute>
			<attribute name="household_id" class="java.lang.String" >692031</attribute>
			<attribute name="sex" class="java.lang.String" >1</attribute>
		</attributes>
		<plan selected="yes">
			<activity type="home" facility="h692031" x="443020.80278851715" y="4456590.2901981585" end_time="11:36:27" >
			</activity>
			<leg mode="car">
			</leg>
			<activity type="work" facility="94940" x="443864.50198506296" y="4457168.120047535" end_time="18:16:51" >
			</activity>
			<leg mode="walk">
			</leg>
			<activity type="home" facility="h692031" x="443020.80278851715" y="4456590.2901981585" >
			</activity>
		</plan>

	</person>

<!-- ====================================================================== -->

	<person id="2042349">
		<attributes>
			<attribute name="age" class="java.lang.String" >15</attribute>
			<attribute name="household_id" class="java.lang.String" >692782</attribute>
			<attribute name="sex" class="java.lang.String" >1</attribute>
		</attributes>
		<plan selected="yes">
			<activity type="home" facility="h692782" x="443908.5300557476" y="4456085.10999785" end_time="08:21:43" >
			</activity>
			<leg mode="car">
			</leg>
			<activity type="work" facility="94565" x="443834.6371588952" y="4462049.680430535" end_time="16:07:06" >
			</activity>
			<leg mode="car">
			</leg>
			<activity type="home" facility="h692782" x="443908.5300557476" y="4456085.10999785" >
			</activity>
		</plan>

	</person>

<!-- ====================================================================== -->

	<person id="2045014">
		<attributes>
			<attribute name="age" class="java.lang.String" >18</attribute>
			<attribute name="household_id" class="java.lang.String" >693617</attribute>
			<attribute name="sex" class="java.lang.String" >2</attribute>
		</attributes>
		<plan selected="yes">
			<activity type="home" facility="h693617" x="442975.9637793218" y="4457609.340421631" end_time="11:46:31" >
			</activity>
			<leg mode="walk">
			</leg>
			<activity type="work" facility="94985" x="443921.96633047063" y="4457044.189680535" end_time="21:02:44" >
			</activity>
			<leg mode="walk">
			</leg>
			<activity type="work" facility="94973" x="443893.8163089166" y="4457166.120205074" end_time="21:34:04" >
			</activity>
			<leg mode="walk">
			</leg>
			<activity type="home" facility="h693617" x="442975.9637793218" y="4457609.340421631" >
			</activity>
		</plan>
