<?xml version="1.0" encoding="utf-8"?>
<!DOCTYPE population SYSTEM "http://www.matsim.org/files/dtd/population_v6.dtd">

<population>



<!-- ====================================================================== -->

	<person id="1740304">
		<attributes>
			<attribute name="age" class="java.lang.String" >20</attribute>
			<attribute name="household_id" class="java.lang.String" >602716</attribute>
			<attribute name="sex" class="java.lang.String" >2</attribute>
		</attributes>
		<plan selected="yes">
			<activity type="Home" facility="h602716" x="439266.97612927866" y="4461473.690614623" end_time="09:48:31" >
			</activity>
			<leg mode="drt">
			</leg>
			<activity type="work" facility="91154" x="438246.52580770093" y="4458468.900117955" end_time="16:51:12" >
			</activity>
			<leg mode="drt">
			</leg>
			<activity type="Home" facility="h602716" x="439266.97612927866" y="4461473.690614623" >
			</activity>
		</plan>

	</person>

<!-- ====================================================================== -->

	<person id="1741707">
		<attributes>
			<attribute name="age" class="java.lang.String" >49</attribute>
			<attribute name="household_id" class="java.lang.String" >603027</attribute>
			<attribute name="sex" class="java.lang.String" >2</attribute>
		</attributes>
		<plan selected="yes">
			<activity type="Home" facility="h603027" x="439947.0718941088" y="4461047.639579796" end_time="11:02:50" >
			</activity>
			<leg mode="taxi">
			</leg>
			<activity type="othmaint" facility="93097" x="438473.0663405455" y="4460406.159633542" end_time="13:54:27" >
			</activity>
			<leg mode="taxi">
			</leg>
			<activity type="Home" facility="h603027" x="439947.0718941088" y="4461047.639579796" >
			</activity>
		</plan>

	</person>

<!-- ====================================================================== -->

	<person id="1753760">
		<attributes>
			<attribute name="age" class="java.lang.String" >0</attribute>
			<attribute name="household_id" class="java.lang.String" >606989</attribute>
			<attribute name="sex" class="java.lang.String" >1</attribute>
		</attributes>
		<plan selected="yes">
			<activity type="Home" facility="h606989" x="440087.068151825" y="4460753.129724848" end_time="07:28:21" >
			</activity>
			<leg mode="taxi">
			</leg>
			<activity type="school" facility="94525" x="442335.5781068291" y="4457187.0406593755" end_time="13:46:52" >
			</activity>
			<leg mode="taxi">
			</leg>
			<activity type="Home" facility="h606989" x="440087.068151825" y="4460753.129724848" >
			</activity>
		</plan>

	</person>

<!-- ====================================================================== -->

	<person id="1756027">
		<attributes>
			<attribute name="age" class="java.lang.String" >24</attribute>
			<attribute name="household_id" class="java.lang.String" >607767</attribute>
			<attribute name="sex" class="java.lang.String" >2</attribute>
		</attributes>
		<plan selected="yes">
			<activity type="Home" facility="h607767" x="438391.25028542965" y="4459877.069803656" end_time="08:04:26" >
			</activity>
			<leg mode="drt">
			</leg>
			<activity type="work" facility="96232" x="444925.8962155774" y="4454437.160267465" end_time="17:54:57" >
			</activity>
			<leg mode="drt">
			</leg>
			<activity type="social" facility="96135" x="444104.76746383996" y="4454965.52984927" end_time="18:13:07" >
			</activity>
			<leg mode="drt">
			</leg>
			<activity type="Home" facility="h607767" x="438391.25028542965" y="4459877.069803656" >
			</activity>
		</plan>

	</person>

<!-- ====================================================================== -->

	<person id="1772342">
		<attributes>
			<attribute name="age" class="java.lang.String" >24</attribute>
			<attribute name="household_id" class="java.lang.String" >613075</attribute>
			<attribute name="sex" class="java.lang.String" >1</attribute>
		</attributes>
		<plan selected="yes">
			<activity type="Home" facility="h613075" x="440808.8833659644" y="4461715.209626245" end_time="07:42:51" >
			</activity>
			<leg mode="car">
			</leg>
			<activity type="work" facility="92553" x="440037.63071264036" y="4461311.959653397" end_time="19:40:24" >
			</activity>
			<leg mode="car">
			</leg>
			<activity type="Home" facility="h613075" x="440808.8833659644" y="4461715.209626245" >
			</activity>
		</plan>

	</person>

<!-- ====================================================================== -->

	<person id="1773280">
		<attributes>
			<attribute name="age" class="java.lang.String" >21</attribute>
			<attribute name="household_id" class="java.lang.String" >613305</attribute>
			<attribute name="sex" class="java.lang.String" >2</attribute>
		</attributes>
		<plan selected="yes">
			<activity type="Home" facility="h613305" x="440815.77131481597" y="4459250.010515749" end_time="08:35:13" >
			</activity>
			<leg mode="car">
			</leg>
			<activity type="escort" facility="93874" x="441206.65134709585" y="4460812.7503187535" end_time="08:42:10" >
			</activity>
			<leg mode="car">
			</leg>
			<activity type="Home" facility="h613305" x="440815.77131481597" y="4459250.010515749" >
			</activity>
		</plan>

	</person>

<!-- ====================================================================== -->

	<person id="1774506">
		<attributes>
			<attribute name="age" class="java.lang.String" >52</attribute>
			<attribute name="household_id" class="java.lang.String" >613787</attribute>
			<attribute name="sex" class="java.lang.String" >2</attribute>
		</attributes>
		<plan selected="yes">
			<activity type="Home" facility="h613787" x="441188.20956051885" y="4458507.189666795" end_time="09:12:06" >
			</activity>
			<leg mode="walk">
			</leg>
			<activity type="work" facility="93969" x="442399.54413298774" y="4459476.220167484" end_time="15:12:29" >
			</activity>
			<leg mode="walk">
			</leg>
			<activity type="Home" facility="h613787" x="441188.20956051885" y="4458507.189666795" end_time="16:06:41" >
			</activity>
			<leg mode="walk">
			</leg>
			<activity type="othdiscr" facility="96569" x="443196.19338968693" y="4454880.280571402" end_time="18:58:24" >
			</activity>
			<leg mode="walk">
			</leg>
			<activity type="Home" facility="h613787" x="441188.20956051885" y="4458507.189666795" >
			</activity>
		</plan>

	</person>

<!-- ====================================================================== -->

	<person id="1777268">
		<attributes>
			<attribute name="age" class="java.lang.String" >0</attribute>
			<attribute name="household_id" class="java.lang.String" >614667</attribute>
			<attribute name="sex" class="java.lang.String" >2</attribute>
		</attributes>
		<plan selected="yes">
			<activity type="Home" facility="h614667" x="442008.5312431721" y="4460784.959987053" end_time="14:47:46" >
			</activity>
			<leg mode="walk">
			</leg>
			<activity type="othdiscr" facility="93935" x="441488.27782582387" y="4459411.150228745" end_time="21:29:15" >
			</activity>
			<leg mode="walk">
			</leg>
			<activity type="Home" facility="h614667" x="442008.5312431721" y="4460784.959987053" >
			</activity>
		</plan>

	</person>

<!-- ====================================================================== -->

	<person id="1777419">
		<attributes>
			<attribute name="age" class="java.lang.String" >3</attribute>
			<attribute name="household_id" class="java.lang.String" >614705</attribute>
			<attribute name="sex" class="java.lang.String" >1</attribute>
		</attributes>
		<plan selected="yes">
			<activity type="Home" facility="h614705" x="442016.3588782082" y="4460878.700129655" end_time="08:05:45" >
			</activity>
			<leg mode="pt">
			</leg>
			<activity type="school" facility="94843" x="444647.81817381823" y="4458560.829946837" end_time="16:35:48" >
			</activity>
			<leg mode="pt">
			</leg>
			<activity type="Home" facility="h614705" x="442016.3588782082" y="4460878.700129655" >
			</activity>
		</plan>

	</person>

<!-- ====================================================================== -->

	<person id="1777728">
		<attributes>
			<attribute name="age" class="java.lang.String" >4</attribute>
			<attribute name="household_id" class="java.lang.String" >614771</attribute>
			<attribute name="sex" class="java.lang.String" >2</attribute>
		</attributes>
		<plan selected="yes">
			<activity type="Home" facility="h614771" x="441832.2205536191" y="4460893.589705543" end_time="11:47:37" >
			</activity>
			<leg mode="pt">
			</leg>
			<activity type="school" facility="94568" x="443883.4422780456" y="4462010.9402398085" end_time="16:43:23" >
			</activity>
			<leg mode="car">
			</leg>
			<activity type="Home" facility="h614771" x="441832.2205536191" y="4460893.589705543" >
			</activity>
		</plan>

	</person>

<!-- ====================================================================== -->

	<person id="1779918">
		<attributes>
			<attribute name="age" class="java.lang.String" >0</attribute>
			<attribute name="household_id" class="java.lang.String" >615557</attribute>
			<attribute name="sex" class="java.lang.String" >1</attribute>
		</attributes>
		<plan selected="yes">
			<activity type="Home" facility="h615557" x="442532.7077822724" y="4460601.610127656" end_time="10:03:32" >
			</activity>
			<leg mode="car">
			</leg>
			<activity type="school" facility="96412" x="442869.1032425051" y="4455117.5399948945" end_time="20:18:22" >
			</activity>
			<leg mode="car">
			</leg>
			<activity type="eatout" facility="96232" x="444925.8962155774" y="4454437.160267465" end_time="21:59:25" >
			</activity>
			<leg mode="car">
			</leg>
			<activity type="Home" facility="h615557" x="442532.7077822724" y="4460601.610127656" >
			</activity>
		</plan>

	</person>

<!-- ====================================================================== -->

	<person id="1781726">
		<attributes>
			<attribute name="age" class="java.lang.String" >27</attribute>
			<attribute name="household_id" class="java.lang.String" >616102</attribute>
			<attribute name="sex" class="java.lang.String" >1</attribute>
		</attributes>
		<plan selected="yes">
			<activity type="Home" facility="h616102" x="441695.8002037123" y="4459660.3305313" end_time="05:43:47" >
			</activity>
			<leg mode="pt">
			</leg>
			<activity type="escort" facility="94970" x="443710.7081676341" y="4457231.269718004" end_time="05:25:06" >
			</activity>
			<leg mode="walk">
			</leg>
			<activity type="work" facility="94936" x="443807.1070159628" y="4457169.919685547" end_time="16:00:00" >
			</activity>
			<leg mode="pt">
			</leg>
			<activity type="Home" facility="h616102" x="441695.8002037123" y="4459660.3305313" >
			</activity>
		</plan>

	</person>

<!-- ====================================================================== -->

	<person id="1782178">
		<attributes>
			<attribute name="age" class="java.lang.String" >23</attribute>
			<attribute name="household_id" class="java.lang.String" >616294</attribute>
			<attribute name="sex" class="java.lang.String" >1</attribute>
		</attributes>
		<plan selected="yes">
			<activity type="Home" facility="h616294" x="441501.221681109" y="4460061.9201500835" end_time="09:12:42" >
			</activity>
			<leg mode="car">
			</leg>
			<activity type="eatout" facility="94738" x="445343.18837946554" y="4460292.670117521" end_time="18:01:59" >
			</activity>
			<leg mode="car">
			</leg>
			<activity type="Home" facility="h616294" x="441501.221681109" y="4460061.9201500835" >
			</activity>
		</plan>

	</person>

<!-- ====================================================================== -->

	<person id="1782700">
		<attributes>
			<attribute name="age" class="java.lang.String" >25</attribute>
			<attribute name="household_id" class="java.lang.String" >616543</attribute>
			<attribute name="sex" class="java.lang.String" >2</attribute>
		</attributes>
		<plan selected="yes">
			<activity type="Home" facility="h616543" x="440562.45232781675" y="4459905.839542552" end_time="06:00:10" >
			</activity>
			<leg mode="bike">
			</leg>
			<activity type="work" facility="94981" x="443923.3368640344" y="4457117.540014061" end_time="16:11:08" >
			</activity>
			<leg mode="bike">
			</leg>
			<activity type="Home" facility="h616543" x="440562.45232781675" y="4459905.839542552" >
			</activity>
		</plan>

	</person>

<!-- ====================================================================== -->

	<person id="1787214">
		<attributes>
			<attribute name="age" class="java.lang.String" >4</attribute>
			<attribute name="household_id" class="java.lang.String" >618139</attribute>
			<attribute name="sex" class="java.lang.String" >2</attribute>
		</attributes>
		<plan selected="yes">
			<activity type="Home" facility="h618139" x="443004.92317698634" y="4459402.8796735965" end_time="11:50:47" >
			</activity>
			<leg mode="pt">
			</leg>
			<activity type="shopping" facility="96370" x="441951.6338182996" y="4455168.44984388" end_time="13:41:46" >
			</activity>
			<leg mode="pt">
			</leg>
			<activity type="eatout" facility="94891" x="443107.6575930962" y="4457375.629773559" end_time="14:01:31" >
			</activity>
			<leg mode="pt">
			</leg>
			<activity type="othmaint" facility="94726" x="444059.9291266898" y="4459400.8295826465" end_time="14:11:40" >
			</activity>
			<leg mode="pt">
			</leg>
			<activity type="Home" facility="h618139" x="443004.92317698634" y="4459402.8796735965" >
			</activity>
		</plan>

	</person>

<!-- ====================================================================== -->

	<person id="1787334">
		<attributes>
			<attribute name="age" class="java.lang.String" >57</attribute>
			<attribute name="household_id" class="java.lang.String" >618193</attribute>
			<attribute name="sex" class="java.lang.String" >2</attribute>
		</attributes>
		<plan selected="yes">
			<activity type="Home" facility="h618193" x="442619.90199375857" y="4459440.550172991" end_time="09:50:31" >
			</activity>
			<leg mode="car">
			</leg>
			<activity type="shopping" facility="94710" x="443994.84000427584" y="4460929.580241617" end_time="10:34:01" >
			</activity>
			<leg mode="car">
			</leg>
			<activity type="Home" facility="h618193" x="442619.90199375857" y="4459440.550172991" >
			</activity>
		</plan>

	</person>

<!-- ====================================================================== -->

	<person id="2005269">
		<attributes>
			<attribute name="age" class="java.lang.String" >71</attribute>
			<attribute name="household_id" class="java.lang.String" >681760</attribute>
			<attribute name="sex" class="java.lang.String" >2</attribute>
		</attributes>
		<plan selected="yes">
			<activity type="Home" facility="h681760" x="441034.134020213" y="4458231.518621141" end_time="09:42:26" >
			</activity>
			<leg mode="car">
			</leg>
			<activity type="othmaint" facility="97172" x="442358.3272222892" y="4451647.960060058" end_time="10:07:41" >
			</activity>
			<leg mode="car">
			</leg>
			<activity type="social" facility="95106" x="442472.3098321524" y="4456658.910427323" end_time="15:59:42" >
			</activity>
			<leg mode="walk">
			</leg>
			<activity type="othdiscr" facility="95108" x="442518.1299953236" y="4456706.740646804" end_time="20:34:55" >
			</activity>
			<leg mode="car">
			</leg>
			<activity type="Home" facility="h681760" x="441034.134020213" y="4458231.518621141" >
			</activity>
		</plan>

	</person>

<!-- ====================================================================== -->

	<person id="2008986">
		<attributes>
			<attribute name="age" class="java.lang.String" >46</attribute>
			<attribute name="household_id" class="java.lang.String" >682736</attribute>
			<attribute name="sex" class="java.lang.String" >2</attribute>
		</attributes>
		<plan selected="yes">
			<activity type="Home" facility="h682736" x="446004.0195237089" y="4460505.849793783" end_time="10:52:17" >
			</activity>
			<leg mode="car">
			</leg>
			<activity type="shopping" facility="94738" x="445343.18837946554" y="4460292.670117521" end_time="12:15:12" >
			</activity>
			<leg mode="car">
			</leg>
			<activity type="Home" facility="h682736" x="446004.0195237089" y="4460505.849793783" >
			</activity>
		</plan>

	</person>

<!-- ====================================================================== -->

	<person id="2012477">
		<attributes>
			<attribute name="age" class="java.lang.String" >36</attribute>
			<attribute name="household_id" class="java.lang.String" >683812</attribute>
			<attribute name="sex" class="java.lang.String" >2</attribute>
		</attributes>
		<plan selected="yes">
			<activity type="Home" facility="h683812" x="444303.2091529231" y="4459491.97956068" end_time="13:53:12" >
			</activity>
			<leg mode="walk">
			</leg>
			<activity type="escort" facility="96207" x="443994.26628994977" y="4454272.620253114" end_time="14:09:26" >
			</activity>
			<leg mode="walk">
			</leg>
			<activity type="Home" facility="h683812" x="444303.2091529231" y="4459491.97956068" >
			</activity>
		</plan>

	</person>

<!-- ====================================================================== -->

	<person id="2012765">
		<attributes>
			<attribute name="age" class="java.lang.String" >15</attribute>
			<attribute name="household_id" class="java.lang.String" >683868</attribute>
			<attribute name="sex" class="java.lang.String" >1</attribute>
		</attributes>
		<plan selected="yes">
			<activity type="Home" facility="h683868" x="444174.22097573825" y="4459643.150374611" end_time="07:44:13" >
			</activity>
			<leg mode="pt">
			</leg>
			<activity type="school" facility="96245" x="445262.6336865433" y="4454703.099865858" end_time="14:40:44" >
			</activity>
			<leg mode="pt">
			</leg>
			<activity type="Home" facility="h683868" x="444174.22097573825" y="4459643.150374611" >
			</activity>
		</plan>

	</person>

<!-- ====================================================================== -->

	<person id="2012899">
		<attributes>
			<attribute name="age" class="java.lang.String" >41</attribute>
			<attribute name="household_id" class="java.lang.String" >683892</attribute>
			<attribute name="sex" class="java.lang.String" >1</attribute>
		</attributes>
		<plan selected="yes">
			<activity type="Home" facility="h683892" x="444076.4571952814" y="4459541.910455294" end_time="09:36:27" >
			</activity>
			<leg mode="bike">
			</leg>
			<activity type="work" facility="97058" x="440940.3597380865" y="4453891.259875443" end_time="19:58:11" >
			</activity>
			<leg mode="bike">
			</leg>
			<activity type="Home" facility="h683892" x="444076.4571952814" y="4459541.910455294" >
			</activity>
		</plan>

	</person>

<!-- ====================================================================== -->

	<person id="2013386">
		<attributes>
			<attribute name="age" class="java.lang.String" >21</attribute>
			<attribute name="household_id" class="java.lang.String" >684024</attribute>
			<attribute name="sex" class="java.lang.String" >2</attribute>
		</attributes>
		<plan selected="yes">
			<activity type="Home" facility="h684024" x="444266.25007281307" y="4459452.239703274" end_time="10:05:30" >
			</activity>
			<leg mode="walk">
			</leg>
			<activity type="shopping" facility="96233" x="444921.30723186594" y="4454398.179928312" end_time="11:05:14" >
			</activity>
			<leg mode="walk">
			</leg>
			<activity type="work" facility="96227" x="444005.2013869852" y="4454579.14033303" end_time="18:36:02" >
			</activity>
			<leg mode="walk">
			</leg>
			<activity type="Home" facility="h684024" x="444266.25007281307" y="4459452.239703274" >
			</activity>
		</plan>

	</person>

<!-- ====================================================================== -->

	<person id="2017035">
		<attributes>
			<attribute name="age" class="java.lang.String" >42</attribute>
			<attribute name="household_id" class="java.lang.String" >685200</attribute>
			<attribute name="sex" class="java.lang.String" >2</attribute>
		</attributes>
		<plan selected="yes">
			<activity type="Home" facility="h685200" x="441456.44954281155" y="4457814.740092303" end_time="15:02:18" >
			</activity>
			<leg mode="car">
			</leg>
			<activity type="othdiscr" facility="94869" x="445579.8393320942" y="4457483.189597845" end_time="17:06:29" >
			</activity>
			<leg mode="car">
			</leg>
			<activity type="Home" facility="h685200" x="441456.44954281155" y="4457814.740092303" >
			</activity>
		</plan>

	</person>

<!-- ====================================================================== -->

	<person id="2017336">
		<attributes>
			<attribute name="age" class="java.lang.String" >52</attribute>
			<attribute name="household_id" class="java.lang.String" >685258</attribute>
			<attribute name="sex" class="java.lang.String" >2</attribute>
		</attributes>
		<plan selected="yes">
			<activity type="Home" facility="h685258" x="441172.9083002693" y="4457929.22029403" end_time="08:57:49" >
			</activity>
			<leg mode="car">
			</leg>
			<activity type="work" facility="97168" x="442315.64125948906" y="4452457.68059066" end_time="12:00:26" >
			</activity>
			<leg mode="car">
			</leg>
			<activity type="Home" facility="h685258" x="441172.9083002693" y="4457929.22029403" end_time="13:07:09" >
			</activity>
			<leg mode="car">
			</leg>
			<activity type="social" facility="93956" x="441681.49167427205" y="4459451.530190997" end_time="13:15:25" >
			</activity>
			<leg mode="car">
			</leg>
			<activity type="work" facility="97168" x="442315.64125948906" y="4452457.68059066" end_time="16:52:06" >
			</activity>
			<leg mode="car">
			</leg>
			<activity type="Home" facility="h685258" x="441172.9083002693" y="4457929.22029403" >
			</activity>
		</plan>

	</person>

<!-- ====================================================================== -->

	<person id="2023531">
		<attributes>
			<attribute name="age" class="java.lang.String" >61</attribute>
			<attribute name="household_id" class="java.lang.String" >687017</attribute>
			<attribute name="sex" class="java.lang.String" >2</attribute>
		</attributes>
		<plan selected="yes">
			<activity type="Home" facility="h687017" x="444033.0168504969" y="4461900.882143599" end_time="11:17:39" >
			</activity>
			<leg mode="car">
			</leg>
			<activity type="shopping" facility="93580" x="441105.97655837063" y="4459886.130125798" end_time="12:57:12" >
			</activity>
			<leg mode="car">
			</leg>
			<activity type="shopping" facility="93607" x="441208.8330401763" y="4459852.119709834" end_time="12:00:10" >
			</activity>
			<leg mode="car">
			</leg>
			<activity type="Home" facility="h687017" x="444033.0168504969" y="4461900.882143599" >
			</activity>
		</plan>

	</person>

<!-- ====================================================================== -->

	<person id="2026825">
		<attributes>
			<attribute name="age" class="java.lang.String" >24</attribute>
			<attribute name="household_id" class="java.lang.String" >687795</attribute>
			<attribute name="sex" class="java.lang.String" >2</attribute>
		</attributes>
		<plan selected="yes">
			<activity type="Home" facility="h687795" x="443725.7017779929" y="4461554.458326248" end_time="08:32:33" >
			</activity>
			<leg mode="car">
			</leg>
			<activity type="escort" facility="94213" x="440679.32777635276" y="4457676.000523793" end_time="08:44:35" >
			</activity>
			<leg mode="car">
			</leg>
			<activity type="Home" facility="h687795" x="443725.7017779929" y="4461554.458326248" >
			</activity>
		</plan>

	</person>

<!-- ====================================================================== -->

	<person id="2027601">
		<attributes>
			<attribute name="age" class="java.lang.String" >17</attribute>
			<attribute name="household_id" class="java.lang.String" >688065</attribute>
			<attribute name="sex" class="java.lang.String" >1</attribute>
		</attributes>
		<plan selected="yes">
			<activity type="Home" facility="h688065" x="444338.75670403853" y="4457941.330557304" end_time="15:31:28" >
			</activity>
			<leg mode="walk">
			</leg>
			<activity type="social" facility="94738" x="445343.18837946554" y="4460292.670117521" end_time="17:44:58" >
			</activity>
			<leg mode="walk">
			</leg>
			<activity type="Home" facility="h688065" x="444338.75670403853" y="4457941.330557304" >
			</activity>
		</plan>

	</person>

<!-- ====================================================================== -->

	<person id="2030457">
		<attributes>
			<attribute name="age" class="java.lang.String" >22</attribute>
			<attribute name="household_id" class="java.lang.String" >688897</attribute>
			<attribute name="sex" class="java.lang.String" >1</attribute>
		</attributes>
		<plan selected="yes">
			<activity type="Home" facility="h688897" x="444376.1502597891" y="4460734.029734861" end_time="12:29:19" >
			</activity>
			<leg mode="walk">
			</leg>
			<activity type="univ" facility="94971" x="443956.33601593855" y="4456736.110575828" end_time="15:30:32" >
			</activity>
			<leg mode="pt">
			</leg>
			<activity type="shopping" facility="91159" x="439061.5580866962" y="4457191.620572798" end_time="15:08:46" >
			</activity>
			<leg mode="pt">
			</leg>
			<activity type="Home" facility="h688897" x="444376.1502597891" y="4460734.029734861" >
			</activity>
		</plan>

	</person>

<!-- ====================================================================== -->

	<person id="2033991">
		<attributes>
			<attribute name="age" class="java.lang.String" >2</attribute>
			<attribute name="household_id" class="java.lang.String" >690107</attribute>
			<attribute name="sex" class="java.lang.String" >1</attribute>
		</attributes>
		<plan selected="yes">
			<activity type="Home" facility="h690107" x="444970.82748056506" y="4458036.649683176" end_time="07:22:35" >
			</activity>
			<leg mode="pt">
			</leg>
			<activity type="school" facility="94702" x="443688.08409358317" y="4460929.239801609" end_time="16:26:01" >
			</activity>
			<leg mode="pt">
			</leg>
			<activity type="Home" facility="h690107" x="444970.82748056506" y="4458036.649683176" >
			</activity>
		</plan>

	</person>

<!-- ====================================================================== -->

	<person id="2036337">
		<attributes>
			<attribute name="age" class="java.lang.String" >71</attribute>
			<attribute name="household_id" class="java.lang.String" >690954</attribute>
			<attribute name="sex" class="java.lang.String" >2</attribute>
		</attributes>
		<plan selected="yes">
			<activity type="Home" facility="h690954" x="444736.85282189434" y="4457493.079665356" end_time="17:04:14" >
			</activity>
			<leg mode="walk">
			</leg>
			<activity type="othdiscr" facility="95101" x="442433.12334283785" y="4456847.299634318" end_time="20:28:16" >
			</activity>
			<leg mode="walk">
			</leg>
			<activity type="Home" facility="h690954" x="444736.85282189434" y="4457493.079665356" >
			</activity>
		</plan>

	</person>

<!-- ====================================================================== -->

	<person id="2036934">
		<attributes>
			<attribute name="age" class="java.lang.String" >35</attribute>
			<attribute name="household_id" class="java.lang.String" >691051</attribute>
			<attribute name="sex" class="java.lang.String" >2</attribute>
		</attributes>
		<plan selected="yes">
			<activity type="Home" facility="h691051" x="444862.4194092794" y="4457647.460270087" end_time="09:16:51" >
			</activity>
			<leg mode="car">
			</leg>
			<activity type="escort" facility="96621" x="442067.24370957026" y="4453828.660093785" end_time="14:21:46" >
			</activity>
			<leg mode="car">
			</leg>
			<activity type="Home" facility="h691051" x="444862.4194092794" y="4457647.460270087" >
			</activity>
		</plan>

	</person>

<!-- ====================================================================== -->

	<person id="2039928">
		<attributes>
			<attribute name="age" class="java.lang.String" >58</attribute>
			<attribute name="household_id" class="java.lang.String" >692031</attribute>
			<attribute name="sex" class="java.lang.String" >1</attribute>
		</attributes>
		<plan selected="yes">
			<activity type="Home" facility="h692031" x="443020.80278851715" y="4456590.2901981585" end_time="11:58:32" >
			</activity>
			<leg mode="car">
			</leg>
			<activity type="eatout" facility="94921" x="443797.86106161634" y="4457084.050348328" end_time="18:38:06" >
			</activity>
			<leg mode="walk">
			</leg>
			<activity type="Home" facility="h692031" x="443020.80278851715" y="4456590.2901981585" >
			</activity>
		</plan>

	</person>

<!-- ====================================================================== -->

	<person id="2042349">
		<attributes>
			<attribute name="age" class="java.lang.String" >15</attribute>
			<attribute name="household_id" class="java.lang.String" >692782</attribute>
			<attribute name="sex" class="java.lang.String" >1</attribute>
		</attributes>
		<plan selected="yes">
			<activity type="Home" facility="h692782" x="443908.5300557476" y="4456085.10999785" end_time="08:42:21" >
			</activity>
			<leg mode="car">
			</leg>
			<activity type="school" facility="94558" x="443799.7233968593" y="4461872.84049566" end_time="16:51:16" >
			</activity>
			<leg mode="car">
			</leg>
			<activity type="Home" facility="h692782" x="443908.5300557476" y="4456085.10999785" >
			</activity>
		</plan>

	</person>

<!-- ====================================================================== -->

	<person id="2045014">
		<attributes>
			<attribute name="age" class="java.lang.String" >18</attribute>
			<attribute name="household_id" class="java.lang.String" >693617</attribute>
			<attribute name="sex" class="java.lang.String" >2</attribute>
		</attributes>
		<plan selected="yes">
			<activity type="Home" facility="h693617" x="442975.9637793218" y="4457609.340421631" end_time="11:34:43" >
			</activity>
			<leg mode="walk">
			</leg>
			<activity type="work" facility="94933" x="443780.51379883755" y="4456943.860136243" end_time="21:33:38" >
			</activity>
			<leg mode="walk">
			</leg>
			<activity type="eatout" facility="94911" x="443867.9709330099" y="4456882.539933227" end_time="21:03:41" >
			</activity>
			<leg mode="walk">
			</leg>