<?xml version="1.0" encoding="utf-8"?>
<!DOCTYPE population SYSTEM "http://www.matsim.org/files/dtd/population_v6.dtd">

<population>



<!-- ====================================================================== -->

	<person id="107628">
		<attributes>
			<attribute name="age" class="java.lang.String">42</attribute>
		</attributes>
		<plan selected="yes">
		</plan>

	</person>

<!-- ====================================================================== -->

	<person id="110675">
		<attributes>
			<attribute name="age" class="java.lang.String">30</attribute>
		</attributes>
		<plan selected="yes">
		</plan>

	</person>

<!-- ====================================================================== -->

	<person id="112064">
		<attributes>
			<attribute name="age" class="java.lang.String">48</attribute>
		</attributes>
		<plan selected="yes">
		</plan>

	</person>

<!-- ====================================================================== -->

	<person id="112535">
		<attributes>
			<attribute name="age" class="java.lang.String">25</attribute>
		</attributes>
		<plan selected="yes">
		</plan>

	</person>

<!-- ====================================================================== -->

	<person id="1263746">
		<attributes>
			<attribute name="age" class="java.lang.String">72</attribute>
		</attributes>
		<plan selected="yes">
		</plan>

	</person>

<!-- ====================================================================== -->

	<person id="1264249">
		<attributes>
			<attribute name="age" class="java.lang.String">77</attribute>
		</attributes>
		<plan selected="yes">
		</plan>

	</person>

<!-- ====================================================================== -->

	<person id="1265325">
		<attributes>
			<attribute name="age" class="java.lang.String">69</attribute>
		</attributes>
		<plan selected="yes">
		</plan>

	</person>

<!-- ====================================================================== -->

	<person id="1265379">
		<attributes>
			<attribute name="age" class="java.lang.String">70</attribute>
		</attributes>
		<plan selected="yes">
		</plan>

	</person>

<!-- ====================================================================== -->

	<person id="1265898">
		<attributes>
			<attribute name="age" class="java.lang.String">80</attribute>
		</attributes>
		<plan selected="yes">
		</plan>

	</person>

<!-- ====================================================================== -->

	<person id="1266941">
		<attributes>
			<attribute name="age" class="java.lang.String">84</attribute>
		</attributes>
		<plan selected="yes">
		</plan>

	</person>

<!-- ====================================================================== -->

	<person id="1267567">
		<attributes>
			<attribute name="age" class="java.lang.String">85</attribute>
		</attributes>
		<plan selected="yes">
		</plan>

	</person>

<!-- ====================================================================== -->

	<person id="1356077">
		<attributes>
			<attribute name="age" class="java.lang.String">71</attribute>
		</attributes>
		<plan selected="yes">
		</plan>

	</person>

<!-- ====================================================================== -->

	<person id="1356259">
		<attributes>
			<attribute name="age" class="java.lang.String">79</attribute>
		</attributes>
		<plan selected="yes">
		</plan>

	</person>

<!-- ====================================================================== -->

	<person id="1356489">
		<attributes>
			<attribute name="age" class="java.lang.String">67</attribute>
		</attributes>
		<plan selected="yes">
		</plan>

	</person>

<!-- ====================================================================== -->

	<person id="1423759">
		<attributes>
			<attribute name="age" class="java.lang.String">77</attribute>
		</attributes>
		<plan selected="yes">
		</plan>

	</person>

<!-- ====================================================================== -->

	<person id="1423760">
		<attributes>
			<attribute name="age" class="java.lang.String">76</attribute>
		</attributes>
		<plan selected="yes">
		</plan>

	</person>

<!-- ====================================================================== -->

	<person id="1424997">
		<attributes>
			<attribute name="age" class="java.lang.String">69</attribute>
		</attributes>
		<plan selected="yes">
		</plan>

	</person>

<!-- ====================================================================== -->

	<person id="1424998">
		<attributes>
			<attribute name="age" class="java.lang.String">71</attribute>
		</attributes>
		<plan selected="yes">
		</plan>

	</person>

<!-- ====================================================================== -->

	<person id="1427193">
		<attributes>
			<attribute name="age" class="java.lang.String">65</attribute>
		</attributes>
		<plan selected="yes">
		</plan>

	</person>

<!-- ====================================================================== -->

	<person id="1427194">
		<attributes>
			<attribute name="age" class="java.lang.String">69</attribute>
		</attributes>
		<plan selected="yes">
		</plan>

	</person>

<!-- ====================================================================== -->

	<person id="1476139">
		<attributes>
			<attribute name="age" class="java.lang.String">70</attribute>
		</attributes>
		<plan selected="yes">
		</plan>

	</person>

<!-- ====================================================================== -->

	<person id="1476140">
		<attributes>
			<attribute name="age" class="java.lang.String">61</attribute>
		</attributes>
		<plan selected="yes">
		</plan>

	</person>

<!-- ====================================================================== -->

	<person id="1572659">
		<attributes>
			<attribute name="age" class="java.lang.String">60</attribute>
		</attributes>
		<plan selected="yes">
		</plan>

	</person>

<!-- ====================================================================== -->

	<person id="1572930">
		<attributes>
			<attribute name="age" class="java.lang.String">52</attribute>
		</attributes>
		<plan selected="yes">
		</plan>

	</person>

<!-- ====================================================================== -->

	<person id="1631617">
		<attributes>
			<attribute name="age" class="java.lang.String">57</attribute>
		</attributes>
		<plan selected="yes">
		</plan>

	</person>

<!-- ====================================================================== -->

	<person id="1632206">
		<attributes>
			<attribute name="age" class="java.lang.String">31</attribute>
		</attributes>
		<plan selected="yes">
		</plan>

	</person>

<!-- ====================================================================== -->

	<person id="1632248">
		<attributes>
			<attribute name="age" class="java.lang.String">40</attribute>
		</attributes>
		<plan selected="yes">
		</plan>

	</person>

<!-- ====================================================================== -->

	<person id="1632281">
		<attributes>
			<attribute name="age" class="java.lang.String">36</attribute>
		</attributes>
		<plan selected="yes">
		</plan>

	</person>

<!-- ====================================================================== -->

	<person id="1632987">
		<attributes>
			<attribute name="age" class="java.lang.String">29</attribute>
		</attributes>
		<plan selected="yes">
		</plan>

	</person>

<!-- ====================================================================== -->

	<person id="1633149">
		<attributes>
			<attribute name="age" class="java.lang.String">34</attribute>
		</attributes>
		<plan selected="yes">
		</plan>

	</person>

<!-- ====================================================================== -->

	<person id="1633214">
		<attributes>
			<attribute name="age" class="java.lang.String">59</attribute>
		</attributes>
		<plan selected="yes">
		</plan>

	</person>

<!-- ====================================================================== -->

	<person id="1774265">
		<attributes>
			<attribute name="age" class="java.lang.String">24</attribute>
		</attributes>
		<plan selected="yes">
		</plan>

	</person>

<!-- ====================================================================== -->

	<person id="1774266">
		<attributes>
			<attribute name="age" class="java.lang.String">25</attribute>
		</attributes>
		<plan selected="yes">
		</plan>

	</person>

<!-- ====================================================================== -->

	<person id="1875721">
		<attributes>
			<attribute name="age" class="java.lang.String">25</attribute>
		</attributes>
		<plan selected="yes">
		</plan>

	</person>

<!-- ====================================================================== -->

	<person id="1875722">
		<attributes>
			<attribute name="age" class="java.lang.String">25</attribute>
		</attributes>
		<plan selected="yes">
		</plan>

	</person>

<!-- ====================================================================== -->

	<person id="1876067">
		<attributes>
			<attribute name="age" class="java.lang.String">22</attribute>
		</attributes>
		<plan selected="yes">
		</plan>

	</person>

<!-- ====================================================================== -->

	<person id="1876068">
		<attributes>
			<attribute name="age" class="java.lang.String">22</attribute>
		</attributes>
		<plan selected="yes">
		</plan>

	</person>

<!-- ====================================================================== -->

	<person id="1958677">
		<attributes>
			<attribute name="age" class="java.lang.String">40</attribute>
		</attributes>
		<plan selected="yes">
		</plan>

	</person>

<!-- ====================================================================== -->

	<person id="1958678">
		<attributes>
			<attribute name="age" class="java.lang.String">4</attribute>
		</attributes>
		<plan selected="yes">
		</plan>

	</person>

<!-- ====================================================================== -->

	<person id="2159057">
		<attributes>
			<attribute name="age" class="java.lang.String">35</attribute>
		</attributes>
		<plan selected="yes">
		</plan>

	</person>

<!-- ====================================================================== -->

	<person id="2159058">
		<attributes>
			<attribute name="age" class="java.lang.String">36</attribute>
		</attributes>
		<plan selected="yes">
		</plan>

	</person>

<!-- ====================================================================== -->

	<person id="2159059">
		<attributes>
			<attribute name="age" class="java.lang.String">3</attribute>
		</attributes>
		<plan selected="yes">
		</plan>

	</person>

<!-- ====================================================================== -->

	<person id="2219996">
		<attributes>
			<attribute name="age" class="java.lang.String">34</attribute>
		</attributes>
		<plan selected="yes">
		</plan>

	</person>

<!-- ====================================================================== -->

	<person id="2219997">
		<attributes>
			<attribute name="age" class="java.lang.String">31</attribute>
		</attributes>
		<plan selected="yes">
		</plan>

	</person>

<!-- ====================================================================== -->

	<person id="2219998">
		<attributes>
			<attribute name="age" class="java.lang.String">11</attribute>
		</attributes>
		<plan selected="yes">
		</plan>

	</person>

<!-- ====================================================================== -->

	<person id="2458500">
		<attributes>
			<attribute name="age" class="java.lang.String">40</attribute>
		</attributes>
		<plan selected="yes">
		</plan>

	</person>

<!-- ====================================================================== -->

	<person id="2458501">
		<attributes>
			<attribute name="age" class="java.lang.String">42</attribute>
		</attributes>
		<plan selected="yes">
		</plan>

	</person>

<!-- ====================================================================== -->

	<person id="2458502">
		<attributes>
			<attribute name="age" class="java.lang.String">12</attribute>
		</attributes>
		<plan selected="yes">
		</plan>

	</person>

<!-- ====================================================================== -->

	<person id="2458503">
		<attributes>
			<attribute name="age" class="java.lang.String">9</attribute>
		</attributes>
		<plan selected="yes">
		</plan>

	</person>

<!-- ====================================================================== -->

	<person id="2566698">
		<attributes>
			<attribute name="age" class="java.lang.String">36</attribute>
		</attributes>
		<plan selected="yes">
		</plan>

	</person>

<!-- ====================================================================== -->

	<person id="2566699">
		<attributes>
			<attribute name="age" class="java.lang.String">29</attribute>
		</attributes>
		<plan selected="yes">
		</plan>

	</person>

<!-- ====================================================================== -->

	<person id="2566700">
		<attributes>
			<attribute name="age" class="java.lang.String">8</attribute>
		</attributes>
		<plan selected="yes">
		</plan>

	</person>

<!-- ====================================================================== -->

	<person id="2566701">
		<attributes>
			<attribute name="age" class="java.lang.String">4</attribute>
		</attributes>
		<plan selected="yes">
		</plan>

	</person>

<!-- ====================================================================== -->

	<person id="2566702">
		<attributes>
			<attribute name="age" class="java.lang.String">2</attribute>
		</attributes>
		<plan selected="yes">
		</plan>

	</person>

<!-- ====================================================================== -->

	<person id="264107">
		<attributes>
			<attribute name="age" class="java.lang.String">28</attribute>
		</attributes>
		<plan selected="yes">
		</plan>

	</person>

<!-- ====================================================================== -->

	<person id="264108">
		<attributes>
			<attribute name="age" class="java.lang.String">27</attribute>
		</attributes>
		<plan selected="yes">
		</plan>

	</person>

<!-- ====================================================================== -->

	<person id="264247">
		<attributes>
			<attribute name="age" class="java.lang.String">20</attribute>
		</attributes>
		<plan selected="yes">
		</plan>

	</person>

<!-- ====================================================================== -->

	<person id="264248">
		<attributes>
			<attribute name="age" class="java.lang.String">23</attribute>
		</attributes>
		<plan selected="yes">
		</plan>

	</person>

<!-- ====================================================================== -->

	<person id="26478">
		<attributes>
			<attribute name="age" class="java.lang.String">46</attribute>
		</attributes>
		<plan selected="yes">
		</plan>

	</person>

<!-- ====================================================================== -->

	<person id="26686">
		<attributes>
			<attribute name="age" class="java.lang.String">39</attribute>
		</attributes>
		<plan selected="yes">
		</plan>

	</person>

<!-- ====================================================================== -->

	<person id="26844">
		<attributes>
			<attribute name="age" class="java.lang.String">51</attribute>
		</attributes>
		<plan selected="yes">
		</plan>

	</person>

<!-- ====================================================================== -->

	<person id="27726">
		<attributes>
			<attribute name="age" class="java.lang.String">52</attribute>
		</attributes>
		<plan selected="yes">
		</plan>

	</person>

<!-- ====================================================================== -->

	<person id="27748">
		<attributes>
			<attribute name="age" class="java.lang.String">57</attribute>
		</attributes>
		<plan selected="yes">
		</plan>

	</person>

<!-- ====================================================================== -->

	<person id="2877282">
		<attributes>
			<attribute name="age" class="java.lang.String">45</attribute>
		</attributes>
		<plan selected="yes">
		</plan>

	</person>

<!-- ====================================================================== -->

	<person id="2877283">
		<attributes>
			<attribute name="age" class="java.lang.String">43</attribute>
		</attributes>
		<plan selected="yes">
		</plan>

	</person>

<!-- ====================================================================== -->

	<person id="2877284">
		<attributes>
			<attribute name="age" class="java.lang.String">20</attribute>
		</attributes>
		<plan selected="yes">
		</plan>

	</person>

<!-- ====================================================================== -->

	<person id="2877285">
		<attributes>
			<attribute name="age" class="java.lang.String">18</attribute>
		</attributes>
		<plan selected="yes">
		</plan>

	</person>

<!-- ====================================================================== -->

	<person id="2877286">
		<attributes>
			<attribute name="age" class="java.lang.String">16</attribute>
		</attributes>
		<plan selected="yes">
		</plan>

	</person>

<!-- ====================================================================== -->

	<person id="2877287">
		<attributes>
			<attribute name="age" class="java.lang.String">12</attribute>
		</attributes>
		<plan selected="yes">
		</plan>

	</person>

<!-- ====================================================================== -->

	<person id="2936497">
		<attributes>
			<attribute name="age" class="java.lang.String">71</attribute>
		</attributes>
		<plan selected="yes">
		</plan>

	</person>

<!-- ====================================================================== -->

	<person id="2936550">
		<attributes>
			<attribute name="age" class="java.lang.String">67</attribute>
		</attributes>
		<plan selected="yes">
		</plan>

	</person>

<!-- ====================================================================== -->

	<person id="2936845">
		<attributes>
			<attribute name="age" class="java.lang.String">68</attribute>
		</attributes>
		<plan selected="yes">
		</plan>

	</person>

<!-- ====================================================================== -->

	<person id="2936848">
		<attributes>
			<attribute name="age" class="java.lang.String">67</attribute>
		</attributes>
		<plan selected="yes">
		</plan>

	</person>

<!-- ====================================================================== -->

	<person id="2957186">
		<attributes>
			<attribute name="age" class="java.lang.String">70</attribute>
		</attributes>
		<plan selected="yes">
		</plan>

	</person>

<!-- ====================================================================== -->

	<person id="29625">
		<attributes>
			<attribute name="age" class="java.lang.String">61</attribute>
		</attributes>
		<plan selected="yes">
		</plan>

	</person>

<!-- ====================================================================== -->

	<person id="3061894">
		<attributes>
			<attribute name="age" class="java.lang.String">68</attribute>
		</attributes>
		<plan selected="yes">
		</plan>

	</person>

<!-- ====================================================================== -->

	<person id="3061895">
		<attributes>
			<attribute name="age" class="java.lang.String">63</attribute>
		</attributes>
		<plan selected="yes">
		</plan>

	</person>

<!-- ====================================================================== -->

	<person id="3188482">
		<attributes>
			<attribute name="age" class="java.lang.String">66</attribute>
		</attributes>
		<plan selected="yes">
		</plan>

	</person>

<!-- ====================================================================== -->

	<person id="3188483">
		<attributes>
			<attribute name="age" class="java.lang.String">48</attribute>
		</attributes>
		<plan selected="yes">
		</plan>

	</person>

<!-- ====================================================================== -->

	<person id="3188484">
		<attributes>
			<attribute name="age" class="java.lang.String">22</attribute>
		</attributes>
		<plan selected="yes">
		</plan>

	</person>

<!-- ====================================================================== -->

	<person id="3188485">
		<attributes>
			<attribute name="age" class="java.lang.String">19</attribute>
		</attributes>
		<plan selected="yes">
		</plan>

	</person>

<!-- ====================================================================== -->

	<person id="3232955">
		<attributes>
			<attribute name="age" class="java.lang.String">42</attribute>
		</attributes>
		<plan selected="yes">
		</plan>

	</person>

<!-- ====================================================================== -->

	<person id="3233462">
		<attributes>
			<attribute name="age" class="java.lang.String">43</attribute>
		</attributes>
		<plan selected="yes">
		</plan>

	</person>

<!-- ====================================================================== -->

	<person id="323689">
		<attributes>
			<attribute name="age" class="java.lang.String">22</attribute>
		</attributes>
		<plan selected="yes">
		</plan>

	</person>

<!-- ====================================================================== -->

	<person id="323690">
		<attributes>
			<attribute name="age" class="java.lang.String">23</attribute>
		</attributes>
		<plan selected="yes">
		</plan>

	</person>

<!-- ====================================================================== -->

	<person id="324051">
		<attributes>
			<attribute name="age" class="java.lang.String">64</attribute>
		</attributes>
		<plan selected="yes">
		</plan>

	</person>

<!-- ====================================================================== -->

	<person id="324052">
		<attributes>
			<attribute name="age" class="java.lang.String">58</attribute>
		</attributes>
		<plan selected="yes">
		</plan>

	</person>

<!-- ====================================================================== -->

	<person id="324909">
		<attributes>
			<attribute name="age" class="java.lang.String">61</attribute>
		</attributes>
		<plan selected="yes">
		</plan>

	</person>

<!-- ====================================================================== -->

	<person id="324910">
		<attributes>
			<attribute name="age" class="java.lang.String">53</attribute>
		</attributes>
		<plan selected="yes">
		</plan>

	</person>

<!-- ====================================================================== -->

	<person id="325431">
		<attributes>
			<attribute name="age" class="java.lang.String">22</attribute>
		</attributes>
		<plan selected="yes">
		</plan>

	</person>

<!-- ====================================================================== -->

	<person id="325432">
		<attributes>
			<attribute name="age" class="java.lang.String">22</attribute>
		</attributes>
		<plan selected="yes">
		</plan>

	</person>

<!-- ====================================================================== -->

	<person id="325623">
		<attributes>
			<attribute name="age" class="java.lang.String">21</attribute>
		</attributes>
		<plan selected="yes">
		</plan>

	</person>

<!-- ====================================================================== -->

	<person id="325624">
		<attributes>
			<attribute name="age" class="java.lang.String">18</attribute>
		</attributes>
		<plan selected="yes">
		</plan>

	</person>

<!-- ====================================================================== -->

	<person id="3328454">
		<attributes>
			<attribute name="age" class="java.lang.String">61</attribute>
		</attributes>
		<plan selected="yes">
		</plan>

	</person>

<!-- ====================================================================== -->

	<person id="3328455">
		<attributes>
			<attribute name="age" class="java.lang.String">64</attribute>
		</attributes>
		<plan selected="yes">
		</plan>

	</person>

<!-- ====================================================================== -->

	<person id="3328568">
		<attributes>
			<attribute name="age" class="java.lang.String">53</attribute>
		</attributes>
		<plan selected="yes">
		</plan>

	</person>

<!-- ====================================================================== -->

	<person id="3328569">
		<attributes>
			<attribute name="age" class="java.lang.String">61</attribute>
		</attributes>
		<plan selected="yes">
		</plan>

	</person>

<!-- ====================================================================== -->

	<person id="3494722">
		<attributes>
			<attribute name="age" class="java.lang.String">31</attribute>
		</attributes>
		<plan selected="yes">
		</plan>

	</person>

<!-- ====================================================================== -->

	<person id="3494723">
		<attributes>
			<attribute name="age" class="java.lang.String">25</attribute>
		</attributes>
		<plan selected="yes">
		</plan>

	</person>

<!-- ====================================================================== -->

	<person id="3495080">
		<attributes>
			<attribute name="age" class="java.lang.String">39</attribute>
		</attributes>
		<plan selected="yes">
		</plan>

	</person>

<!-- ====================================================================== -->

	<person id="3495081">
		<attributes>
			<attribute name="age" class="java.lang.String">41</attribute>
		</attributes>
		<plan selected="yes">
		</plan>

	</person>

<!-- ====================================================================== -->

	<person id="3495342">
		<attributes>
			<attribute name="age" class="java.lang.String">31</attribute>
		</attributes>
		<plan selected="yes">
		</plan>

	</person>

<!-- ====================================================================== -->

	<person id="3495343">
		<attributes>
			<attribute name="age" class="java.lang.String">25</attribute>
		</attributes>
		<plan selected="yes">
		</plan>

	</person>

<!-- ====================================================================== -->

	<person id="3596364">
		<attributes>
			<attribute name="age" class="java.lang.String">56</attribute>
		</attributes>
		<plan selected="yes">
		</plan>

	</person>

<!-- ====================================================================== -->

	<person id="3596365">
		<attributes>
			<attribute name="age" class="java.lang.String">13</attribute>
		</attributes>
		<plan selected="yes">
		</plan>

	</person>

<!-- ====================================================================== -->

	<person id="386007">
		<attributes>
			<attribute name="age" class="java.lang.String">42</attribute>
		</attributes>
		<plan selected="yes">
		</plan>

	</person>

<!-- ====================================================================== -->

	<person id="386008">
		<attributes>
			<attribute name="age" class="java.lang.String">11</attribute>
		</attributes>
		<plan selected="yes">
		</plan>

	</person>

<!-- ====================================================================== -->

	<person id="386061">
		<attributes>
			<attribute name="age" class="java.lang.String">50</attribute>
		</attributes>
		<plan selected="yes">
		</plan>

	</person>

<!-- ====================================================================== -->

	<person id="386062">
		<attributes>
			<attribute name="age" class="java.lang.String">16</attribute>
		</attributes>
		<plan selected="yes">
		</plan>

	</person>

<!-- ====================================================================== -->

	<person id="3891102">
		<attributes>
			<attribute name="age" class="java.lang.String">36</attribute>
		</attributes>
		<plan selected="yes">
		</plan>

	</person>

<!-- ====================================================================== -->

	<person id="3891103">
		<attributes>
			<attribute name="age" class="java.lang.String">67</attribute>
		</attributes>
		<plan selected="yes">
		</plan>

	</person>

<!-- ====================================================================== -->

	<person id="3891104">
		<attributes>
			<attribute name="age" class="java.lang.String">8</attribute>
		</attributes>
		<plan selected="yes">
		</plan>

	</person>

<!-- ====================================================================== -->

	<person id="4171615">
		<attributes>
			<attribute name="age" class="java.lang.String">29</attribute>
		</attributes>
		<plan selected="yes">
		</plan>

	</person>

<!-- ====================================================================== -->

	<person id="4171616">
		<attributes>
			<attribute name="age" class="java.lang.String">20</attribute>
		</attributes>
		<plan selected="yes">
		</plan>

	</person>

<!-- ====================================================================== -->

	<person id="4171617">
		<attributes>
			<attribute name="age" class="java.lang.String">27</attribute>
		</attributes>
		<plan selected="yes">
		</plan>

	</person>

<!-- ====================================================================== -->

	<person id="4171618">
		<attributes>
			<attribute name="age" class="java.lang.String">24</attribute>
		</attributes>
		<plan selected="yes">
		</plan>

	</person>

<!-- ====================================================================== -->

	<person id="4171619">
		<attributes>
			<attribute name="age" class="java.lang.String">58</attribute>
		</attributes>
		<plan selected="yes">
		</plan>

	</person>

<!-- ====================================================================== -->

	<person id="4171620">
		<attributes>
			<attribute name="age" class="java.lang.String">3</attribute>
		</attributes>
		<plan selected="yes">
		</plan>

	</person>

<!-- ====================================================================== -->

	<person id="4171621">
		<attributes>
			<attribute name="age" class="java.lang.String">19</attribute>
		</attributes>
		<plan selected="yes">
		</plan>

	</person>

<!-- ====================================================================== -->

	<person id="4171622">
		<attributes>
			<attribute name="age" class="java.lang.String">31</attribute>
		</attributes>
		<plan selected="yes">
		</plan>

	</person>

<!-- ====================================================================== -->

	<person id="4171623">
		<attributes>
			<attribute name="age" class="java.lang.String">36</attribute>
		</attributes>
		<plan selected="yes">
		</plan>

	</person>
