<?xml version="1.0" encoding="utf-8"?>
<!DOCTYPE population SYSTEM "http://www.matsim.org/files/dtd/population_v6.dtd">

<population>



<!-- ====================================================================== -->

	<person id="107628">
		<attributes>
			<attribute name="age" class="java.lang.String">42</attribute>
			<attribute name="sex" class="java.lang.String">1</attribute>
		</attributes>
		<plan selected="yes">
			<activity type="Home" facility="6" >
			</activity>
			<leg mode="WALK">
			</leg>
			<activity type="eatout" facility="16" >
			</activity>
			<leg mode="WALK">
			</leg>
			<activity type="Home" facility="6" >
			</activity>
		</plan>

	</person>

<!-- ====================================================================== -->

	<person id="110675">
		<attributes>
			<attribute name="age" class="java.lang.String">30</attribute>
			<attribute name="sex" class="java.lang.String">1</attribute>
		</attributes>
		<plan selected="yes">
		</plan>

	</person>

<!-- ====================================================================== -->

	<person id="112064">
		<attributes>
			<attribute name="age" class="java.lang.String">48</attribute>
			<attribute name="sex" class="java.lang.String">2</attribute>
		</attributes>
		<plan selected="yes">
			<activity type="Home" facility="16" >
			</activity>
			<leg mode="WALK">
			</leg>
			<activity type="othdiscr" facility="16" >
			</activity>
			<leg mode="WALK">
			</leg>
			<activity type="Home" facility="16" >
			</activity>
			<leg mode="WALK">
			</leg>
			<activity type="shopping" facility="24" >
			</activity>
			<leg mode="WALK">
			</leg>
			<activity type="Home" facility="16" >
			</activity>
		</plan>

	</person>

<!-- ====================================================================== -->

	<person id="112535">
		<attributes>
			<attribute name="age" class="java.lang.String">25</attribute>
			<attribute name="sex" class="java.lang.String">2</attribute>
		</attributes>
		<plan selected="yes">
		</plan>

	</person>

<!-- ====================================================================== -->

	<person id="1263746">
		<attributes>
			<attribute name="age" class="java.lang.String">72</attribute>
			<attribute name="sex" class="java.lang.String">1</attribute>
		</attributes>
		<plan selected="yes">
			<activity type="Home" facility="8" >
			</activity>
			<leg mode="WALK">
			</leg>
			<activity type="eatout" facility="9" >
			</activity>
			<leg mode="WALK">
			</leg>
			<activity type="Home" facility="8" >
			</activity>
		</plan>

	</person>

<!-- ====================================================================== -->

	<person id="1264249">
		<attributes>
			<attribute name="age" class="java.lang.String">77</attribute>
			<attribute name="sex" class="java.lang.String">1</attribute>
		</attributes>
		<plan selected="yes">
		</plan>

	</person>

<!-- ====================================================================== -->

	<person id="1265325">
		<attributes>
			<attribute name="age" class="java.lang.String">69</attribute>
			<attribute name="sex" class="java.lang.String">1</attribute>
		</attributes>
		<plan selected="yes">
		</plan>

	</person>

<!-- ====================================================================== -->

	<person id="1265379">
		<attributes>
			<attribute name="age" class="java.lang.String">70</attribute>
			<attribute name="sex" class="java.lang.String">1</attribute>
		</attributes>
		<plan selected="yes">
		</plan>

	</person>

<!-- ====================================================================== -->

	<person id="1265898">
		<attributes>
			<attribute name="age" class="java.lang.String">80</attribute>
			<attribute name="sex" class="java.lang.String">1</attribute>
		</attributes>
		<plan selected="yes">
			<activity type="Home" facility="17" >
			</activity>
			<leg mode="WALK">
			</leg>
			<activity type="othdiscr" facility="24" >
			</activity>
			<leg mode="WALK">
			</leg>
			<activity type="Home" facility="17" >
			</activity>
		</plan>

	</person>

<!-- ====================================================================== -->

	<person id="1266941">
		<attributes>
			<attribute name="age" class="java.lang.String">84</attribute>
			<attribute name="sex" class="java.lang.String">1</attribute>
		</attributes>
		<plan selected="yes">
			<activity type="Home" facility="21" >
			</activity>
			<leg mode="WALK">
			</leg>
			<activity type="shopping" facility="12" >
			</activity>
			<leg mode="WALK">
			</leg>
			<activity type="Home" facility="21" >
			</activity>
		</plan>

	</person>

<!-- ====================================================================== -->

	<person id="1267567">
		<attributes>
			<attribute name="age" class="java.lang.String">85</attribute>
			<attribute name="sex" class="java.lang.String">1</attribute>
		</attributes>
		<plan selected="yes">
		</plan>

	</person>

<!-- ====================================================================== -->

	<person id="1356077">
		<attributes>
			<attribute name="age" class="java.lang.String">71</attribute>
			<attribute name="sex" class="java.lang.String">2</attribute>
		</attributes>
		<plan selected="yes">
			<activity type="Home" facility="20" >
			</activity>
			<leg mode="WALK">
			</leg>
			<activity type="work" facility="9" >
			</activity>
			<leg mode="WALK">
			</leg>
			<activity type="Home" facility="20" >
			</activity>
		</plan>

	</person>

<!-- ====================================================================== -->

	<person id="1356259">
		<attributes>
			<attribute name="age" class="java.lang.String">79</attribute>
			<attribute name="sex" class="java.lang.String">2</attribute>
		</attributes>
		<plan selected="yes">
			<activity type="Home" facility="21" >
			</activity>
			<leg mode="WALK">
			</leg>
			<activity type="othmaint" facility="20" >
			</activity>
			<leg mode="DRIVEALONEFREE">
			</leg>
			<activity type="shopping" facility="17" >
			</activity>
			<leg mode="DRIVEALONEFREE">
			</leg>
			<activity type="Home" facility="21" >
			</activity>
			<leg mode="WALK">
			</leg>
			<activity type="work" facility="15" >
			</activity>
			<leg mode="WALK">
			</leg>
			<activity type="Home" facility="21" >
			</activity>
		</plan>

	</person>

<!-- ====================================================================== -->

	<person id="1356489">
		<attributes>
			<attribute name="age" class="java.lang.String">67</attribute>
			<attribute name="sex" class="java.lang.String">1</attribute>
		</attributes>
		<plan selected="yes">
			<activity type="Home" facility="21" >
			</activity>
			<leg mode="WALK_LOC">
			</leg>
			<activity type="othmaint" facility="11" >
			</activity>
			<leg mode="WALK">
			</leg>
			<activity type="Home" facility="21" >
			</activity>
		</plan>

	</person>

<!-- ====================================================================== -->

	<person id="1423759">
		<attributes>
			<attribute name="age" class="java.lang.String">77</attribute>
			<attribute name="sex" class="java.lang.String">1</attribute>
		</attributes>
		<plan selected="yes">
		</plan>

	</person>

<!-- ====================================================================== -->

	<person id="1423760">
		<attributes>
			<attribute name="age" class="java.lang.String">76</attribute>
			<attribute name="sex" class="java.lang.String">2</attribute>
		</attributes>
		<plan selected="yes">
		</plan>

	</person>

<!-- ====================================================================== -->

	<person id="1424997">
		<attributes>
			<attribute name="age" class="java.lang.String">69</attribute>
			<attribute name="sex" class="java.lang.String">2</attribute>
		</attributes>
		<plan selected="yes">
			<activity type="Home" facility="9" >
			</activity>
			<leg mode="WALK">
			</leg>
			<activity type="shopping" facility="11" >
			</activity>
			<leg mode="WALK">
			</leg>
			<activity type="Home" facility="9" >
			</activity>
		</plan>

	</person>

<!-- ====================================================================== -->

	<person id="1424998">
		<attributes>
			<attribute name="age" class="java.lang.String">71</attribute>
			<attribute name="sex" class="java.lang.String">2</attribute>
		</attributes>
		<plan selected="yes">
		</plan>

	</person>

<!-- ====================================================================== -->

	<person id="1427193">
		<attributes>
			<attribute name="age" class="java.lang.String">65</attribute>
			<attribute name="sex" class="java.lang.String">1</attribute>
		</attributes>
		<plan selected="yes">
			<activity type="Home" facility="25" >
			</activity>
			<leg mode="WALK">
			</leg>
			<activity type="shopping" facility="4" >
			</activity>
			<leg mode="WALK">
			</leg>
			<activity type="Home" facility="25" >
			</activity>
		</plan>

	</person>

<!-- ====================================================================== -->

	<person id="1427194">
		<attributes>
			<attribute name="age" class="java.lang.String">69</attribute>
			<attribute name="sex" class="java.lang.String">2</attribute>
		</attributes>
		<plan selected="yes">
			<activity type="Home" facility="25" >
			</activity>
			<leg mode="WALK">
			</leg>
			<activity type="othmaint" facility="7" >
			</activity>
			<leg mode="WALK">
			</leg>
			<activity type="Home" facility="25" >
			</activity>
			<leg mode="WALK">
			</leg>
			<activity type="eatout" facility="24" >
			</activity>
			<leg mode="WALK">
			</leg>
			<activity type="social" facility="23" >
			</activity>
			<leg mode="WALK">
			</leg>
			<activity type="social" facility="3" >
			</activity>
			<leg mode="WALK">
			</leg>
			<activity type="shopping" facility="4" >
			</activity>
			<leg mode="WALK">
			</leg>
			<activity type="Home" facility="25" >
			</activity>
		</plan>

	</person>

<!-- ====================================================================== -->

	<person id="1476139">
		<attributes>
			<attribute name="age" class="java.lang.String">70</attribute>
			<attribute name="sex" class="java.lang.String">1</attribute>
		</attributes>
		<plan selected="yes">
			<activity type="Home" facility="7" >
			</activity>
			<leg mode="WALK">
			</leg>
			<activity type="othmaint" facility="22" >
			</activity>
			<leg mode="WALK_LOC">
			</leg>
			<activity type="Home" facility="7" >
			</activity>
			<leg mode="SHARED3FREE">
			</leg>
			<activity type="work" facility="16" >
			</activity>
			<leg mode="WALK_LOC">
			</leg>
			<activity type="escort" facility="5" >
			</activity>
			<leg mode="SHARED3FREE">
			</leg>
			<activity type="escort" facility="5" >
			</activity>
			<leg mode="WALK_LOC">
			</leg>
			<activity type="Home" facility="7" >
			</activity>
		</plan>

	</person>

<!-- ====================================================================== -->

	<person id="1476140">
		<attributes>
			<attribute name="age" class="java.lang.String">61</attribute>
			<attribute name="sex" class="java.lang.String">2</attribute>
		</attributes>
		<plan selected="yes">
			<activity type="Home" facility="7" >
			</activity>
			<leg mode="BIKE">
			</leg>
			<activity type="shopping" facility="21" >
			</activity>
			<leg mode="BIKE">
			</leg>
			<activity type="Home" facility="7" >
			</activity>
		</plan>

	</person>

<!-- ====================================================================== -->

	<person id="1572659">
		<attributes>
			<attribute name="age" class="java.lang.String">60</attribute>
			<attribute name="sex" class="java.lang.String">1</attribute>
		</attributes>
		<plan selected="yes">
			<activity type="Home" facility="6" >
			</activity>
			<leg mode="WALK">
			</leg>
			<activity type="othmaint" facility="9" >
			</activity>
			<leg mode="WALK_LOC">
			</leg>
			<activity type="escort" facility="7" >
			</activity>
			<leg mode="WALK">
			</leg>
			<activity type="shopping" facility="6" >
			</activity>
			<leg mode="WALK">
			</leg>
			<activity type="shopping" facility="11" >
			</activity>
			<leg mode="WALK">
			</leg>
			<activity type="Home" facility="6" >
			</activity>
		</plan>

	</person>

<!-- ====================================================================== -->

	<person id="1572930">
		<attributes>
			<attribute name="age" class="java.lang.String">52</attribute>
			<attribute name="sex" class="java.lang.String">1</attribute>
		</attributes>
		<plan selected="yes">
			<activity type="Home" facility="9" >
			</activity>
			<leg mode="WALK">
			</leg>
			<activity type="othmaint" facility="7" >
			</activity>
			<leg mode="WALK">
			</leg>
			<activity type="othmaint" facility="5" >
			</activity>
			<leg mode="WALK">
			</leg>
			<activity type="Home" facility="9" >
			</activity>
			<leg mode="WALK">
			</leg>
			<activity type="shopping" facility="11" >
			</activity>
			<leg mode="WALK">
			</leg>
			<activity type="Home" facility="9" >
			</activity>
		</plan>

	</person>

<!-- ====================================================================== -->

	<person id="1631617">
		<attributes>
			<attribute name="age" class="java.lang.String">57</attribute>
			<attribute name="sex" class="java.lang.String">1</attribute>
		</attributes>
		<plan selected="yes">
			<activity type="Home" facility="24" >
			</activity>
			<leg mode="WALK">
			</leg>
			<activity type="atwork" facility="16" >
			</activity>
			<leg mode="WALK">
			</leg>
			<activity type="Work" facility="24" >
			</activity>
			<leg mode="WALK_LRF">
			</leg>
			<activity type="work" facility="24" >
			</activity>
			<leg mode="WALK">
			</leg>
			<activity type="othmaint" facility="13" >
			</activity>
			<leg mode="WALK_LRF">
			</leg>
			<activity type="Home" facility="9" >
			</activity>
		</plan>

	</person>

<!-- ====================================================================== -->

	<person id="1632206">
		<attributes>
			<attribute name="age" class="java.lang.String">31</attribute>
			<attribute name="sex" class="java.lang.String">1</attribute>
		</attributes>
		<plan selected="yes">
		</plan>

	</person>

<!-- ====================================================================== -->

	<person id="1632248">
		<attributes>
			<attribute name="age" class="java.lang.String">40</attribute>
			<attribute name="sex" class="java.lang.String">1</attribute>
		</attributes>
		<plan selected="yes">
			<activity type="Home" facility="11" >
			</activity>
			<leg mode="DRIVEALONEFREE">
			</leg>
			<activity type="othdiscr" facility="19" >
			</activity>
			<leg mode="DRIVEALONEFREE">
			</leg>
			<activity type="work" facility="15" >
			</activity>
			<leg mode="WALK">
			</leg>
			<activity type="Home" facility="11" >
			</activity>
		</plan>

	</person>

<!-- ====================================================================== -->

	<person id="1632281">
		<attributes>
			<attribute name="age" class="java.lang.String">36</attribute>
			<attribute name="sex" class="java.lang.String">1</attribute>
		</attributes>
		<plan selected="yes">
			<activity type="Home" facility="2" >
			</activity>
			<leg mode="WALK">
			</leg>
			<activity type="work" facility="2" >
			</activity>
			<leg mode="WALK">
			</leg>
			<activity type="atwork" facility="5" >
			</activity>
			<leg mode="WALK">
			</leg>
			<activity type="Work" facility="2" >
			</activity>
			<leg mode="WALK_LOC">
			</leg>
			<activity type="work" facility="2" >
			</activity>
			<leg mode="WALK">
			</leg>
			<activity type="Home" facility="12" >
			</activity>
		</plan>

	</person>

<!-- ====================================================================== -->

	<person id="1632987">
		<attributes>
			<attribute name="age" class="java.lang.String">29</attribute>
			<attribute name="sex" class="java.lang.String">1</attribute>
		</attributes>
		<plan selected="yes">
			<activity type="Home" facility="18" >
			</activity>
			<leg mode="WALK">
			</leg>
			<activity type="work" facility="4" >
			</activity>
			<leg mode="WALK">
			</leg>
			<activity type="Home" facility="18" >
			</activity>
		</plan>

	</person>

<!-- ====================================================================== -->

	<person id="1633149">
		<attributes>
			<attribute name="age" class="java.lang.String">34</attribute>
			<attribute name="sex" class="java.lang.String">2</attribute>
		</attributes>
		<plan selected="yes">
			<activity type="Home" facility="21" >
			</activity>
			<leg mode="WALK">
			</leg>
			<activity type="eatout" facility="5" >
			</activity>
			<leg mode="WALK">
			</leg>
			<activity type="Home" facility="21" >
			</activity>
		</plan>

	</person>

<!-- ====================================================================== -->

	<person id="1633214">
		<attributes>
			<attribute name="age" class="java.lang.String">59</attribute>
			<attribute name="sex" class="java.lang.String">1</attribute>
		</attributes>
		<plan selected="yes">
			<activity type="Home" facility="22" >
			</activity>
			<leg mode="WALK_LOC">
			</leg>
			<activity type="othmaint" facility="9" >
			</activity>
			<leg mode="WALK_LRF">
			</leg>
			<activity type="Home" facility="22" >
			</activity>
			<leg mode="WALK_LRF">
			</leg>
			<activity type="shopping" facility="23" >
			</activity>
			<leg mode="WALK">
			</leg>
			<activity type="Home" facility="22" >
			</activity>
			<leg mode="WALK_LOC">
			</leg>
			<activity type="othmaint" facility="10" >
			</activity>
			<leg mode="WALK_LOC">
			</leg>
			<activity type="shopping" facility="16" >
			</activity>
			<leg mode="WALK_LOC">
			</leg>
			<activity type="Home" facility="22" >
			</activity>
		</plan>

	</person>

<!-- ====================================================================== -->

	<person id="1774265">
		<attributes>
			<attribute name="age" class="java.lang.String">24</attribute>
			<attribute name="sex" class="java.lang.String">2</attribute>
		</attributes>
		<plan selected="yes">
			<activity type="Home" facility="7" >
			</activity>
			<leg mode="WALK_LOC">
			</leg>
			<activity type="escort" facility="6" >
			</activity>
			<leg mode="WALK_LOC">
			</leg>
			<activity type="eatout" facility="5" >
			</activity>
			<leg mode="WALK_LOC">
			</leg>
			<activity type="escort" facility="1" >
			</activity>
			<leg mode="WALK_LOC">
			</leg>
			<activity type="univ" facility="12" >
			</activity>
			<leg mode="WALK_LOC">
			</leg>
			<activity type="othdiscr" facility="9" >
			</activity>
			<leg mode="WALK">
			</leg>
			<activity type="shopping" facility="8" >
			</activity>
			<leg mode="WALK">
			</leg>
			<activity type="Home" facility="7" >
			</activity>
		</plan>

	</person>

<!-- ====================================================================== -->

	<person id="1774266">
		<attributes>
			<attribute name="age" class="java.lang.String">25</attribute>
			<attribute name="sex" class="java.lang.String">1</attribute>
		</attributes>
		<plan selected="yes">
			<activity type="Home" facility="7" >
			</activity>
			<leg mode="WALK">
			</leg>
			<activity type="social" facility="9" >
			</activity>
			<leg mode="WALK">
			</leg>
			<activity type="eatout" facility="7" >
			</activity>
			<leg mode="WALK">
			</leg>
			<activity type="Home" facility="7" >
			</activity>
			<leg mode="WALK">
			</leg>
			<activity type="social" facility="8" >
			</activity>
			<leg mode="WALK">
			</leg>
			<activity type="Home" facility="7" >
			</activity>
			<leg mode="WALK">
			</leg>
			<activity type="work" facility="14" >
			</activity>
			<leg mode="WALK">
			</leg>
			<activity type="Home" facility="7" >
			</activity>
		</plan>

	</person>

<!-- ====================================================================== -->

	<person id="1875721">
		<attributes>
			<attribute name="age" class="java.lang.String">25</attribute>
			<attribute name="sex" class="java.lang.String">1</attribute>
		</attributes>
		<plan selected="yes">
			<activity type="Home" facility="16" >
			</activity>
			<leg mode="BIKE">
			</leg>
			<activity type="work" facility="16" >
			</activity>
			<leg mode="BIKE">
			</leg>
			<activity type="Home" facility="16" >
			</activity>
		</plan>

	</person>

<!-- ====================================================================== -->

	<person id="1875722">
		<attributes>
			<attribute name="age" class="java.lang.String">25</attribute>
			<attribute name="sex" class="java.lang.String">2</attribute>
		</attributes>
		<plan selected="yes">
			<activity type="Home" facility="16" >
			</activity>
			<leg mode="WALK">
			</leg>
			<activity type="escort" facility="12" >
			</activity>
			<leg mode="WALK">
			</leg>
			<activity type="eatout" facility="4" >
			</activity>
			<leg mode="WALK">
			</leg>
			<activity type="Home" facility="16" >
			</activity>
		</plan>

	</person>

<!-- ====================================================================== -->

	<person id="1876067">
		<attributes>
			<attribute name="age" class="java.lang.String">22</attribute>
			<attribute name="sex" class="java.lang.String">1</attribute>
		</attributes>
		<plan selected="yes">
			<activity type="Home" facility="17" >
			</activity>
			<leg mode="WALK_LRF">
			</leg>
			<activity type="work" facility="5" >
			</activity>
			<leg mode="WALK_LRF">
			</leg>
			<activity type="Home" facility="17" >
			</activity>
		</plan>

	</person>

<!-- ====================================================================== -->

	<person id="1876068">
		<attributes>
			<attribute name="age" class="java.lang.String">22</attribute>
			<attribute name="sex" class="java.lang.String">1</attribute>
		</attributes>
		<plan selected="yes">
			<activity type="Home" facility="17" >
			</activity>
			<leg mode="WALK_LOC">
			</leg>
			<activity type="univ" facility="12" >
			</activity>
			<leg mode="WALK_LRF">
			</leg>
			<activity type="escort" facility="9" >
			</activity>
			<leg mode="WALK_LRF">
			</leg>
			<activity type="Home" facility="17" >
			</activity>
			<leg mode="SHARED2FREE">
			</leg>
			<activity type="escort" facility="13" >
			</activity>
			<leg mode="WALK">
			</leg>
			<activity type="work" facility="1" >
			</activity>
			<leg mode="WALK">
			</leg>
			<activity type="shopping" facility="4" >
			</activity>
			<leg mode="WALK_LRF">
			</leg>
			<activity type="Home" facility="17" >
			</activity>
		</plan>

	</person>

<!-- ====================================================================== -->

	<person id="1958677">
		<attributes>
			<attribute name="age" class="java.lang.String">40</attribute>
			<attribute name="sex" class="java.lang.String">2</attribute>
		</attributes>
		<plan selected="yes">
			<activity type="Home" facility="9" >
			</activity>
			<leg mode="WALK">
			</leg>
			<activity type="social" facility="7" >
			</activity>
			<leg mode="WALK">
			</leg>
			<activity type="Home" facility="9" >
			</activity>
		</plan>

	</person>

<!-- ====================================================================== -->

	<person id="1958678">
		<attributes>
			<attribute name="age" class="java.lang.String">4</attribute>
			<attribute name="sex" class="java.lang.String">1</attribute>
		</attributes>
		<plan selected="yes">
			<activity type="Home" facility="9" >
			</activity>
			<leg mode="WALK">
			</leg>
			<activity type="school" facility="9" >
			</activity>
			<leg mode="WALK">
			</leg>
			<activity type="Home" facility="9" >
			</activity>
		</plan>

	</person>

<!-- ====================================================================== -->

	<person id="2159057">
		<attributes>
			<attribute name="age" class="java.lang.String">35</attribute>
			<attribute name="sex" class="java.lang.String">1</attribute>
		</attributes>
		<plan selected="yes">
			<activity type="Home" facility="20" >
			</activity>
			<leg mode="DRIVEALONEFREE">
			</leg>
			<activity type="work" facility="13" >
			</activity>
			<leg mode="WALK">
			</leg>
			<activity type="work" facility="21" >
			</activity>
			<leg mode="DRIVEALONEFREE">
			</leg>
			<activity type="shopping" facility="17" >
			</activity>
			<leg mode="DRIVEALONEFREE">
			</leg>
			<activity type="Home" facility="20" >
			</activity>
		</plan>

	</person>

<!-- ====================================================================== -->

	<person id="2159058">
		<attributes>
			<attribute name="age" class="java.lang.String">36</attribute>
			<attribute name="sex" class="java.lang.String">2</attribute>
		</attributes>
		<plan selected="yes">
			<activity type="Home" facility="20" >
			</activity>
			<leg mode="DRIVEALONEFREE">
			</leg>
			<activity type="univ" facility="10" >
			</activity>
			<leg mode="DRIVEALONEFREE">
			</leg>
			<activity type="Home" facility="20" >
			</activity>
		</plan>

	</person>

<!-- ====================================================================== -->

	<person id="2159059">
		<attributes>
			<attribute name="age" class="java.lang.String">3</attribute>
			<attribute name="sex" class="java.lang.String">1</attribute>
		</attributes>
		<plan selected="yes">
			<activity type="Home" facility="20" >
			</activity>
			<leg mode="WALK">
			</leg>
			<activity type="school" facility="10" >
			</activity>
			<leg mode="WALK">
			</leg>
			<activity type="Home" facility="20" >
			</activity>
		</plan>

	</person>

<!-- ====================================================================== -->

	<person id="2219996">
		<attributes>
			<attribute name="age" class="java.lang.String">34</attribute>
			<attribute name="sex" class="java.lang.String">1</attribute>
		</attributes>
		<plan selected="yes">
			<activity type="Home" facility="16" >
			</activity>
			<leg mode="WALK">
			</leg>
			<activity type="work" facility="1" >
			</activity>
			<leg mode="WALK">
			</leg>
			<activity type="Home" facility="16" >
			</activity>
		</plan>

	</person>

<!-- ====================================================================== -->

	<person id="2219997">
		<attributes>
			<attribute name="age" class="java.lang.String">31</attribute>
			<attribute name="sex" class="java.lang.String">2</attribute>
		</attributes>
		<plan selected="yes">
			<activity type="Home" facility="15" >
			</activity>
			<leg mode="WALK">
			</leg>
			<activity type="atwork" facility="5" >
			</activity>
			<leg mode="WALK">
			</leg>
			<activity type="Work" facility="15" >
			</activity>
			<leg mode="WALK">
			</leg>
			<activity type="work" facility="15" >
			</activity>
			<leg mode="WALK">
			</leg>
			<activity type="Home" facility="16" >
			</activity>
		</plan>

	</person>

<!-- ====================================================================== -->

	<person id="2219998">
		<attributes>
			<attribute name="age" class="java.lang.String">11</attribute>
			<attribute name="sex" class="java.lang.String">1</attribute>
		</attributes>
		<plan selected="yes">
			<activity type="Home" facility="16" >
			</activity>
			<leg mode="SHARED3FREE">
			</leg>
			<activity type="othdiscr" facility="4" >
			</activity>
			<leg mode="SHARED3FREE">
			</leg>
			<activity type="Home" facility="16" >
			</activity>
			<leg mode="WALK_LRF">
			</leg>
			<activity type="school" facility="18" >
			</activity>
			<leg mode="WALK_LRF">
			</leg>
			<activity type="Home" facility="16" >
			</activity>
		</plan>

	</person>

<!-- ====================================================================== -->

	<person id="2458500">
		<attributes>
			<attribute name="age" class="java.lang.String">40</attribute>
			<attribute name="sex" class="java.lang.String">1</attribute>
		</attributes>
		<plan selected="yes">
			<activity type="Home" facility="8" >
			</activity>
			<leg mode="WALK">
			</leg>
			<activity type="othmaint" facility="16" >
			</activity>
			<leg mode="WALK">
			</leg>
			<activity type="Home" facility="8" >
			</activity>
		</plan>

	</person>

<!-- ====================================================================== -->

	<person id="2458501">
		<attributes>
			<attribute name="age" class="java.lang.String">42</attribute>
			<attribute name="sex" class="java.lang.String">2</attribute>
		</attributes>
		<plan selected="yes">
			<activity type="Home" facility="8" >
			</activity>
			<leg mode="DRIVEALONEFREE">
			</leg>
			<activity type="escort" facility="22" >
			</activity>
			<leg mode="DRIVEALONEFREE">
			</leg>
			<activity type="Home" facility="8" >
			</activity>
		</plan>

	</person>

<!-- ====================================================================== -->

	<person id="2458502">
		<attributes>
			<attribute name="age" class="java.lang.String">12</attribute>
			<attribute name="sex" class="java.lang.String">2</attribute>
		</attributes>
		<plan selected="yes">
			<activity type="Home" facility="8" >
			</activity>
			<leg mode="SHARED2FREE">
			</leg>
			<activity type="shopping" facility="16" >
			</activity>
			<leg mode="SHARED2FREE">
			</leg>
			<activity type="Home" facility="8" >
			</activity>
			<leg mode="WALK">
			</leg>
			<activity type="school" facility="8" >
			</activity>
			<leg mode="WALK">
			</leg>
			<activity type="eatout" facility="4" >
			</activity>
			<leg mode="WALK">
			</leg>
			<activity type="othdiscr" facility="13" >
			</activity>
			<leg mode="WALK">
			</leg>
			<activity type="Home" facility="8" >
			</activity>
		</plan>

	</person>

<!-- ====================================================================== -->

	<person id="2458503">
		<attributes>
			<attribute name="age" class="java.lang.String">9</attribute>
			<attribute name="sex" class="java.lang.String">1</attribute>
		</attributes>
		<plan selected="yes">
			<activity type="Home" facility="8" >
			</activity>
			<leg mode="WALK">
			</leg>
			<activity type="school" facility="9" >
			</activity>
			<leg mode="WALK">
			</leg>
			<activity type="Home" facility="8" >
			</activity>
		</plan>

	</person>

<!-- ====================================================================== -->

	<person id="2566698">
		<attributes>
			<attribute name="age" class="java.lang.String">36</attribute>