<?xml version="1.0" encoding="utf-8"?>
<!DOCTYPE population SYSTEM "http://www.matsim.org/files/dtd/population_v6.dtd">

<population>



<!-- ====================================================================== -->

	<person id="107628">
		<attributes>
			<attribute name="age" class="java.lang.String">42</attribute>
			<attribute name="sex" class="java.lang.String">1</attribute>
		</attributes>
		<plan selected="yes">
			<activity type="Home" facility="6" x="41.5498588881739" y="-112.075751856651" end_time="11:49:51" >
			</activity>
			<leg mode="WALK">
			</leg>
			<activity type="eatout" facility="16" x="41.5643098712815" y="-112.057550919433" end_time="20:12:50" >
			</activity>
			<leg mode="WALK">
			</leg>
			<activity type="Home" facility="6" >
			</activity>
		</plan>

	</person>

<!-- ====================================================================== -->

	<person id="110675">
		<attributes>
			<attribute name="age" class="java.lang.String">30</attribute>
			<attribute name="sex" class="java.lang.String">1</attribute>
		</attributes>
		<plan selected="yes">
		</plan>

	</person>

<!-- ====================================================================== -->

	<person id="112064">
		<attributes>
			<attribute name="age" class="java.lang.String">48</attribute>
			<attribute name="sex" class="java.lang.String">2</attribute>
		</attributes>
		<plan selected="yes">
			<activity type="Home" facility="16" x="41.5643098712815" y="-112.057550919433" end_time="12:28:21" >
			</activity>
			<leg mode="WALK">
			</leg>
			<activity type="othdiscr" facility="16" x="41.5643098712815" y="-112.057550919433" end_time="14:03:08" >
			</activity>
			<leg mode="WALK">
			</leg>
			<activity type="Home" facility="16" x="41.5643098712815" y="-112.057550919433" end_time="16:46:27" >
			</activity>
			<leg mode="WALK">
			</leg>
			<activity type="shopping" facility="24" x="41.5327050919608" y="-112.022454001241" end_time="17:44:13" >
			</activity>
			<leg mode="WALK">
			</leg>
			<activity type="Home" facility="16" >
			</activity>
		</plan>

	</person>

<!-- ====================================================================== -->

	<person id="112535">
		<attributes>
			<attribute name="age" class="java.lang.String">25</attribute>
			<attribute name="sex" class="java.lang.String">2</attribute>
		</attributes>
		<plan selected="yes">
		</plan>

	</person>

<!-- ====================================================================== -->

	<person id="1263746">
		<attributes>
			<attribute name="age" class="java.lang.String">72</attribute>
			<attribute name="sex" class="java.lang.String">1</attribute>
		</attributes>
		<plan selected="yes">
			<activity type="Home" facility="8" x="41.5643098712815" y="-112.057550919433" end_time="07:46:31" >
			</activity>
			<leg mode="WALK">
			</leg>
			<activity type="eatout" facility="9" x="41.5643098712815" y="-112.057550919433" end_time="14:34:28" >
			</activity>
			<leg mode="WALK">
			</leg>
			<activity type="Home" facility="8" >
			</activity>
		</plan>

	</person>

<!-- ====================================================================== -->

	<person id="1264249">
		<attributes>
			<attribute name="age" class="java.lang.String">77</attribute>
			<attribute name="sex" class="java.lang.String">1</attribute>
		</attributes>
		<plan selected="yes">
		</plan>

	</person>

<!-- ====================================================================== -->

	<person id="1265325">
		<attributes>
			<attribute name="age" class="java.lang.String">69</attribute>
			<attribute name="sex" class="java.lang.String">1</attribute>
		</attributes>
		<plan selected="yes">
		</plan>

	</person>

<!-- ====================================================================== -->

	<person id="1265379">
		<attributes>
			<attribute name="age" class="java.lang.String">70</attribute>
			<attribute name="sex" class="java.lang.String">1</attribute>
		</attributes>
		<plan selected="yes">
		</plan>

	</person>

<!-- ====================================================================== -->

	<person id="1265898">
		<attributes>
			<attribute name="age" class="java.lang.String">80</attribute>
			<attribute name="sex" class="java.lang.String">1</attribute>
		</attributes>
		<plan selected="yes">
			<activity type="Home" facility="17" x="41.5876212032271" y="-112.051691896593" end_time="09:45:34" >
			</activity>
			<leg mode="WALK">
			</leg>
			<activity type="othdiscr" facility="24" x="41.5327050919608" y="-112.022454001241" end_time="20:34:04" >
			</activity>
			<leg mode="WALK">
			</leg>
			<activity type="Home" facility="17" >
			</activity>
		</plan>

	</person>

<!-- ====================================================================== -->

	<person id="1266941">
		<attributes>
			<attribute name="age" class="java.lang.String">84</attribute>
			<attribute name="sex" class="java.lang.String">1</attribute>
		</attributes>
		<plan selected="yes">
			<activity type="Home" facility="21" x="41.5371766827057" y="-112.041427681254" end_time="13:50:09" >
			</activity>
			<leg mode="WALK">
			</leg>
			<activity type="shopping" facility="12" x="41.5643098712815" y="-112.057550919433" end_time="14:45:54" >
			</activity>
			<leg mode="WALK">
			</leg>
			<activity type="Home" facility="21" >
			</activity>
		</plan>

	</person>

<!-- ====================================================================== -->

	<person id="1267567">
		<attributes>
			<attribute name="age" class="java.lang.String">85</attribute>
			<attribute name="sex" class="java.lang.String">1</attribute>
		</attributes>
		<plan selected="yes">
		</plan>

	</person>

<!-- ====================================================================== -->

	<person id="1356077">
		<attributes>
			<attribute name="age" class="java.lang.String">71</attribute>
			<attribute name="sex" class="java.lang.String">2</attribute>
		</attributes>
		<plan selected="yes">
			<activity type="Home" facility="20" x="41.5502772257729" y="-112.02668730021" end_time="08:01:09" >
			</activity>
			<leg mode="WALK">
			</leg>
			<activity type="work" facility="9" x="41.5643098712815" y="-112.057550919433" end_time="17:18:37" >
			</activity>
			<leg mode="WALK">
			</leg>
			<activity type="Home" facility="20" >
			</activity>
		</plan>

	</person>

<!-- ====================================================================== -->

	<person id="1356259">
		<attributes>
			<attribute name="age" class="java.lang.String">79</attribute>
			<attribute name="sex" class="java.lang.String">2</attribute>
		</attributes>
		<plan selected="yes">
			<activity type="Home" facility="21" x="41.5371766827057" y="-112.041427681254" end_time="17:59:20" >
			</activity>
			<leg mode="WALK">
			</leg>
			<activity type="othmaint" facility="20" x="41.5502772257729" y="-112.02668730021" end_time="17:06:18" >
			</activity>
			<leg mode="DRIVEALONEFREE">
			</leg>
			<activity type="shopping" facility="17" x="41.5876212032271" y="-112.051691896593" end_time="17:33:09" >
			</activity>
			<leg mode="DRIVEALONEFREE">
			</leg>
			<activity type="Home" facility="21" x="41.5371766827057" y="-112.041427681254" end_time="08:03:32" >
			</activity>
			<leg mode="WALK">
			</leg>
			<activity type="work" facility="15" x="41.5643098712815" y="-112.057550919433" end_time="17:11:52" >
			</activity>
			<leg mode="WALK">
			</leg>
			<activity type="Home" facility="21" >
			</activity>
		</plan>

	</person>

<!-- ====================================================================== -->

	<person id="1356489">
		<attributes>
			<attribute name="age" class="java.lang.String">67</attribute>
			<attribute name="sex" class="java.lang.String">1</attribute>
		</attributes>
		<plan selected="yes">
			<activity type="Home" facility="21" x="41.5371766827057" y="-112.041427681254" end_time="10:02:44" >
			</activity>
			<leg mode="WALK_LOC">
			</leg>
			<activity type="othmaint" facility="11" x="41.5643098712815" y="-112.057550919433" end_time="12:36:08" >
			</activity>
			<leg mode="WALK">
			</leg>
			<activity type="Home" facility="21" >
			</activity>
		</plan>

	</person>

<!-- ====================================================================== -->

	<person id="1423759">
		<attributes>
			<attribute name="age" class="java.lang.String">77</attribute>
			<attribute name="sex" class="java.lang.String">1</attribute>
		</attributes>
		<plan selected="yes">
		</plan>

	</person>

<!-- ====================================================================== -->

	<person id="1423760">
		<attributes>
			<attribute name="age" class="java.lang.String">76</attribute>
			<attribute name="sex" class="java.lang.String">2</attribute>
		</attributes>
		<plan selected="yes">
		</plan>

	</person>

<!-- ====================================================================== -->

	<person id="1424997">
		<attributes>
			<attribute name="age" class="java.lang.String">69</attribute>
			<attribute name="sex" class="java.lang.String">2</attribute>
		</attributes>
		<plan selected="yes">
			<activity type="Home" facility="9" x="41.5643098712815" y="-112.057550919433" end_time="11:52:17" >
			</activity>
			<leg mode="WALK">
			</leg>
			<activity type="shopping" facility="11" x="41.5643098712815" y="-112.057550919433" end_time="11:59:13" >
			</activity>
			<leg mode="WALK">
			</leg>
			<activity type="Home" facility="9" >
			</activity>
		</plan>

	</person>

<!-- ====================================================================== -->

	<person id="1424998">
		<attributes>
			<attribute name="age" class="java.lang.String">71</attribute>
			<attribute name="sex" class="java.lang.String">2</attribute>
		</attributes>
		<plan selected="yes">
		</plan>

	</person>

<!-- ====================================================================== -->

	<person id="1427193">
		<attributes>
			<attribute name="age" class="java.lang.String">65</attribute>
			<attribute name="sex" class="java.lang.String">1</attribute>
		</attributes>
		<plan selected="yes">
			<activity type="Home" facility="25" x="41.5287181175363" y="-112.095485390227" end_time="13:35:12" >
			</activity>
			<leg mode="WALK">
			</leg>
			<activity type="shopping" facility="4" x="41.5628339002873" y="-112.100357373772" end_time="19:44:11" >
			</activity>
			<leg mode="WALK">
			</leg>
			<activity type="Home" facility="25" >
			</activity>
		</plan>

	</person>

<!-- ====================================================================== -->

	<person id="1427194">
		<attributes>
			<attribute name="age" class="java.lang.String">69</attribute>
			<attribute name="sex" class="java.lang.String">2</attribute>
		</attributes>
		<plan selected="yes">
			<activity type="Home" facility="25" x="41.5287181175363" y="-112.095485390227" end_time="07:38:59" >
			</activity>
			<leg mode="WALK">
			</leg>
			<activity type="othmaint" facility="7" x="41.5643098712815" y="-112.057550919433" end_time="13:07:57" >
			</activity>
			<leg mode="WALK">
			</leg>
			<activity type="Home" facility="25" x="41.5287181175363" y="-112.095485390227" end_time="16:09:45" >
			</activity>
			<leg mode="WALK">
			</leg>
			<activity type="eatout" facility="24" x="41.5327050919608" y="-112.022454001241" end_time="19:34:40" >
			</activity>
			<leg mode="WALK">
			</leg>
			<activity type="social" facility="23" x="41.5327050919608" y="-112.022454001241" end_time="22:58:48" >
			</activity>
			<leg mode="WALK">
			</leg>
			<activity type="social" facility="3" x="41.5713115430914" y="-112.077992098741" end_time="22:35:49" >
			</activity>
			<leg mode="WALK">
			</leg>
			<activity type="shopping" facility="4" x="41.5628339002873" y="-112.100357373772" end_time="22:30:13" >
			</activity>
			<leg mode="WALK">
			</leg>
			<activity type="Home" facility="25" >
			</activity>
		</plan>

	</person>

<!-- ====================================================================== -->

	<person id="1476139">
		<attributes>
			<attribute name="age" class="java.lang.String">70</attribute>
			<attribute name="sex" class="java.lang.String">1</attribute>
		</attributes>
		<plan selected="yes">
			<activity type="Home" facility="7" x="41.5643098712815" y="-112.057550919433" end_time="10:49:29" >
			</activity>
			<leg mode="WALK">
			</leg>
			<activity type="othmaint" facility="22" x="41.5327050919608" y="-112.022454001241" end_time="10:22:40" >
			</activity>
			<leg mode="WALK_LOC">
			</leg>
			<activity type="Home" facility="7" x="41.5643098712815" y="-112.057550919433" end_time="10:17:28" >
			</activity>
			<leg mode="SHARED3FREE">
			</leg>
			<activity type="work" facility="16" x="41.5643098712815" y="-112.057550919433" end_time="20:51:28" >
			</activity>
			<leg mode="WALK_LOC">
			</leg>
			<activity type="escort" facility="5" x="41.5508078118618" y="-112.092100034737" end_time="20:38:48" >
			</activity>
			<leg mode="SHARED3FREE">
			</leg>
			<activity type="escort" facility="5" x="41.5508078118618" y="-112.092100034737" end_time="20:54:41" >
			</activity>
			<leg mode="WALK_LOC">
			</leg>
			<activity type="Home" facility="7" >
			</activity>
		</plan>

	</person>

<!-- ====================================================================== -->

	<person id="1476140">
		<attributes>
			<attribute name="age" class="java.lang.String">61</attribute>
			<attribute name="sex" class="java.lang.String">2</attribute>
		</attributes>
		<plan selected="yes">
			<activity type="Home" facility="7" x="41.5643098712815" y="-112.057550919433" end_time="12:35:55" >
			</activity>
			<leg mode="BIKE">
			</leg>
			<activity type="shopping" facility="21" x="41.5371766827057" y="-112.041427681254" end_time="14:02:50" >
			</activity>
			<leg mode="BIKE">
			</leg>
			<activity type="Home" facility="7" >
			</activity>
		</plan>

	</person>

<!-- ====================================================================== -->

	<person id="1572659">
		<attributes>
			<attribute name="age" class="java.lang.String">60</attribute>
			<attribute name="sex" class="java.lang.String">1</attribute>
		</attributes>
		<plan selected="yes">
			<activity type="Home" facility="6" x="41.5498588881739" y="-112.075751856651" end_time="07:12:44" >
			</activity>
			<leg mode="WALK">
			</leg>
			<activity type="othmaint" facility="9" x="41.5643098712815" y="-112.057550919433" end_time="12:44:18" >
			</activity>
			<leg mode="WALK_LOC">
			</leg>
			<activity type="escort" facility="7" x="41.5643098712815" y="-112.057550919433" end_time="09:50:47" >
			</activity>
			<leg mode="WALK">
			</leg>
			<activity type="shopping" facility="6" x="41.5498588881739" y="-112.075751856651" end_time="16:06:32" >
			</activity>
			<leg mode="WALK">
			</leg>
			<activity type="shopping" facility="11" x="41.5643098712815" y="-112.057550919433" end_time="20:11:36" >
			</activity>
			<leg mode="WALK">
			</leg>
			<activity type="Home" facility="6" >
			</activity>
		</plan>

	</person>

<!-- ====================================================================== -->

	<person id="1572930">
		<attributes>
			<attribute name="age" class="java.lang.String">52</attribute>
			<attribute name="sex" class="java.lang.String">1</attribute>
		</attributes>
		<plan selected="yes">
			<activity type="Home" facility="9" x="41.5643098712815" y="-112.057550919433" end_time="08:17:39" >
			</activity>
			<leg mode="WALK">
			</leg>
			<activity type="othmaint" facility="7" x="41.5643098712815" y="-112.057550919433" end_time="08:04:35" >
			</activity>
			<leg mode="WALK">
			</leg>
			<activity type="othmaint" facility="5" x="41.5508078118618" y="-112.092100034737" end_time="11:40:52" >
			</activity>
			<leg mode="WALK">
			</leg>
			<activity type="Home" facility="9" x="41.5643098712815" y="-112.057550919433" end_time="11:34:43" >
			</activity>
			<leg mode="WALK">
			</leg>
			<activity type="shopping" facility="11" x="41.5643098712815" y="-112.057550919433" end_time="16:45:44" >
			</activity>
			<leg mode="WALK">
			</leg>
			<activity type="Home" facility="9" >
			</activity>
		</plan>

	</person>

<!-- ====================================================================== -->

	<person id="1631617">
		<attributes>
			<attribute name="age" class="java.lang.String">57</attribute>
			<attribute name="sex" class="java.lang.String">1</attribute>
		</attributes>
		<plan selected="yes">
			<activity type="Home" facility="24" x="41.5327050919608" y="-112.022454001241" end_time="13:31:41" >
			</activity>
			<leg mode="WALK">
			</leg>
			<activity type="atwork" facility="16" x="41.5643098712815" y="-112.057550919433" end_time="13:52:34" >
			</activity>
			<leg mode="WALK">
			</leg>
			<activity type="Work" facility="24" x="41.5643098712815" y="-112.057550919433" end_time="08:01:17" >
			</activity>
			<leg mode="WALK_LRF">
			</leg>
			<activity type="work" facility="24" x="41.5327050919608" y="-112.022454001241" end_time="17:57:49" >
			</activity>
			<leg mode="WALK">
			</leg>
			<activity type="othmaint" facility="13" x="41.5643098712815" y="-112.057550919433" end_time="18:13:42" >
			</activity>
			<leg mode="WALK_LRF">
			</leg>
			<activity type="Home" facility="9" >
			</activity>
		</plan>

	</person>

<!-- ====================================================================== -->

	<person id="1632206">
		<attributes>
			<attribute name="age" class="java.lang.String">31</attribute>
			<attribute name="sex" class="java.lang.String">1</attribute>
		</attributes>
		<plan selected="yes">
		</plan>

	</person>

<!-- ====================================================================== -->

	<person id="1632248">
		<attributes>
			<attribute name="age" class="java.lang.String">40</attribute>
			<attribute name="sex" class="java.lang.String">1</attribute>
		</attributes>
		<plan selected="yes">
			<activity type="Home" facility="11" x="41.5643098712815" y="-112.057550919433" end_time="08:06:30" >
			</activity>
			<leg mode="DRIVEALONEFREE">
			</leg>
			<activity type="othdiscr" facility="19" x="41.5793975382006" y="-112.03892504324" end_time="08:15:12" >
			</activity>
			<leg mode="DRIVEALONEFREE">
			</leg>
			<activity type="work" facility="15" x="41.5643098712815" y="-112.057550919433" end_time="17:00:26" >
			</activity>
			<leg mode="WALK">
			</leg>
			<activity type="Home" facility="11" >
			</activity>
		</plan>

	</person>

<!-- ====================================================================== -->

	<person id="1632281">
		<attributes>
			<attribute name="age" class="java.lang.String">36</attribute>
			<attribute name="sex" class="java.lang.String">1</attribute>
		</attributes>
		<plan selected="yes">
			<activity type="Home" facility="2" x="41.5784033476831" y="-112.091697211082" end_time="13:57:12" >
			</activity>
			<leg mode="WALK">
			</leg>
			<activity type="work" facility="2" x="41.5784033476831" y="-112.091697211082" end_time="13:14:07" >
			</activity>
			<leg mode="WALK">
			</leg>
			<activity type="atwork" facility="5" x="41.5508078118618" y="-112.092100034737" end_time="14:47:55" >
			</activity>
			<leg mode="WALK">
			</leg>
			<activity type="Work" facility="2" x="41.5643098712815" y="-112.057550919433" end_time="07:51:53" >
			</activity>
			<leg mode="WALK_LOC">
			</leg>
			<activity type="work" facility="2" x="41.5784033476831" y="-112.091697211082" end_time="18:37:20" >
			</activity>
			<leg mode="WALK">
			</leg>
			<activity type="Home" facility="12" >
			</activity>
		</plan>

	</person>

<!-- ====================================================================== -->

	<person id="1632987">
		<attributes>
			<attribute name="age" class="java.lang.String">29</attribute>
			<attribute name="sex" class="java.lang.String">1</attribute>
		</attributes>
		<plan selected="yes">
			<activity type="Home" facility="18" x="41.6010502040316" y="-112.048305038224" end_time="15:24:56" >
			</activity>
			<leg mode="WALK">
			</leg>
			<activity type="work" facility="4" x="41.5628339002873" y="-112.100357373772" end_time="15:20:40" >
			</activity>
			<leg mode="WALK">
			</leg>
			<activity type="Home" facility="18" >
			</activity>
		</plan>

	</person>

<!-- ====================================================================== -->

	<person id="1633149">
		<attributes>
			<attribute name="age" class="java.lang.String">34</attribute>
			<attribute name="sex" class="java.lang.String">2</attribute>
		</attributes>
		<plan selected="yes">
			<activity type="Home" facility="21" x="41.5371766827057" y="-112.041427681254" end_time="08:32:58" >
			</activity>
			<leg mode="WALK">
			</leg>
			<activity type="eatout" facility="5" x="41.5508078118618" y="-112.092100034737" end_time="14:52:04" >
			</activity>
			<leg mode="WALK">
			</leg>
			<activity type="Home" facility="21" >
			</activity>
		</plan>

	</person>

<!-- ====================================================================== -->

	<person id="1633214">
		<attributes>
			<attribute name="age" class="java.lang.String">59</attribute>
			<attribute name="sex" class="java.lang.String">1</attribute>
		</attributes>
		<plan selected="yes">
			<activity type="Home" facility="22" x="41.5327050919608" y="-112.022454001241" end_time="16:17:04" >
			</activity>
			<leg mode="WALK_LOC">
			</leg>
			<activity type="othmaint" facility="9" x="41.5643098712815" y="-112.057550919433" end_time="19:38:01" >
			</activity>
			<leg mode="WALK_LRF">
			</leg>
			<activity type="Home" facility="22" x="41.5327050919608" y="-112.022454001241" end_time="12:42:52" >
			</activity>
			<leg mode="WALK_LRF">
			</leg>
			<activity type="shopping" facility="23" x="41.5327050919608" y="-112.022454001241" end_time="14:08:08" >
			</activity>
			<leg mode="WALK">
			</leg>
			<activity type="Home" facility="22" x="41.5327050919608" y="-112.022454001241" end_time="14:24:22" >
			</activity>
			<leg mode="WALK_LOC">
			</leg>
			<activity type="othmaint" facility="10" x="41.5643098712815" y="-112.057550919433" end_time="14:41:02" >
			</activity>
			<leg mode="WALK_LOC">
			</leg>
			<activity type="shopping" facility="16" x="41.5643098712815" y="-112.057550919433" end_time="15:18:26" >
			</activity>
			<leg mode="WALK_LOC">
			</leg>
			<activity type="Home" facility="22" >
			</activity>
		</plan>

	</person>

<!-- ====================================================================== -->

	<person id="1774265">
		<attributes>
			<attribute name="age" class="java.lang.String">24</attribute>
			<attribute name="sex" class="java.lang.String">2</attribute>
		</attributes>
		<plan selected="yes">
			<activity type="Home" facility="7" x="41.5643098712815" y="-112.057550919433" end_time="16:09:28" >
			</activity>
			<leg mode="WALK_LOC">
			</leg>
			<activity type="escort" facility="6" x="41.5498588881739" y="-112.075751856651" end_time="18:28:29" >
			</activity>
			<leg mode="WALK_LOC">
			</leg>
			<activity type="eatout" facility="5" x="41.5508078118618" y="-112.092100034737" end_time="18:27:44" >
			</activity>
			<leg mode="WALK_LOC">
			</leg>
			<activity type="escort" facility="1" x="41.5869833144902" y="-112.078520044628" end_time="16:22:47" >
			</activity>
			<leg mode="WALK_LOC">
			</leg>
			<activity type="univ" facility="12" x="41.5643098712815" y="-112.057550919433" end_time="21:04:15" >
			</activity>
			<leg mode="WALK_LOC">
			</leg>
			<activity type="othdiscr" facility="9" x="41.5643098712815" y="-112.057550919433" end_time="21:24:04" >
			</activity>
			<leg mode="WALK">
			</leg>
			<activity type="shopping" facility="8" x="41.5643098712815" y="-112.057550919433" end_time="21:53:12" >
			</activity>
			<leg mode="WALK">
			</leg>
			<activity type="Home" facility="7" >
			</activity>
		</plan>

	</person>

<!-- ====================================================================== -->

	<person id="1774266">
		<attributes>
			<attribute name="age" class="java.lang.String">25</attribute>
			<attribute name="sex" class="java.lang.String">1</attribute>
		</attributes>
		<plan selected="yes">
			<activity type="Home" facility="7" x="41.5643098712815" y="-112.057550919433" end_time="15:16:25" >
			</activity>
			<leg mode="WALK">
			</leg>
			<activity type="social" facility="9" x="41.5643098712815" y="-112.057550919433" end_time="18:45:05" >
			</activity>
			<leg mode="WALK">
			</leg>
			<activity type="eatout" facility="7" x="41.5643098712815" y="-112.057550919433" end_time="18:15:25" >
			</activity>
			<leg mode="WALK">
			</leg>
			<activity type="Home" facility="7" x="41.5643098712815" y="-112.057550919433" end_time="18:10:11" >
			</activity>
			<leg mode="WALK">
			</leg>
			<activity type="social" facility="8" x="41.5643098712815" y="-112.057550919433" end_time="19:10:42" >
			</activity>
			<leg mode="WALK">
			</leg>
			<activity type="Home" facility="7" x="41.5643098712815" y="-112.057550919433" end_time="06:10:49" >
			</activity>
			<leg mode="WALK">
			</leg>
			<activity type="work" facility="14" x="41.5643098712815" y="-112.057550919433" end_time="15:01:01" >
			</activity>
			<leg mode="WALK">
			</leg>
			<activity type="Home" facility="7" >
			</activity>
		</plan>

	</person>

<!-- ====================================================================== -->

	<person id="1875721">
		<attributes>
			<attribute name="age" class="java.lang.String">25</attribute>
			<attribute name="sex" class="java.lang.String">1</attribute>
		</attributes>
		<plan selected="yes">
			<activity type="Home" facility="16" x="41.5643098712815" y="-112.057550919433" end_time="10:04:37" >
			</activity>
			<leg mode="BIKE">
			</leg>
			<activity type="work" facility="16" x="41.5643098712815" y="-112.057550919433" end_time="20:29:58" >
			</activity>
			<leg mode="BIKE">
			</leg>
			<activity type="Home" facility="16" >
			</activity>
		</plan>

	</person>

<!-- ====================================================================== -->

	<person id="1875722">
		<attributes>
			<attribute name="age" class="java.lang.String">25</attribute>
			<attribute name="sex" class="java.lang.String">2</attribute>
		</attributes>
		<plan selected="yes">
			<activity type="Home" facility="16" x="41.5643098712815" y="-112.057550919433" end_time="10:45:54" >
			</activity>
			<leg mode="WALK">
			</leg>
			<activity type="escort" facility="12" x="41.5643098712815" y="-112.057550919433" end_time="13:11:15" >
			</activity>
			<leg mode="WALK">
			</leg>
			<activity type="eatout" facility="4" x="41.5628339002873" y="-112.100357373772" end_time="17:37:12" >
			</activity>
			<leg mode="WALK">
			</leg>
			<activity type="Home" facility="16" >
			</activity>
		</plan>

	</person>

<!-- ====================================================================== -->

	<person id="1876067">
		<attributes>
			<attribute name="age" class="java.lang.String">22</attribute>
			<attribute name="sex" class="java.lang.String">1</attribute>
		</attributes>
		<plan selected="yes">
			<activity type="Home" facility="17" x="41.5876212032271" y="-112.051691896593" end_time="06:33:31" >
			</activity>
			<leg mode="WALK_LRF">
			</leg>
			<activity type="work" facility="5" x="41.5508078118618" y="-112.092100034737" end_time="15:35:28" >
			</activity>
			<leg mode="WALK_LRF">
			</leg>
			<activity type="Home" facility="17" >
			</activity>
		</plan>

	</person>

<!-- ====================================================================== -->

	<person id="1876068">
		<attributes>
			<attribute name="age" class="java.lang.String">22</attribute>
			<attribute name="sex" class="java.lang.String">1</attribute>
		</attributes>
		<plan selected="yes">
			<activity type="Home" facility="17" x="41.5876212032271" y="-112.051691896593" end_time="17:41:57" >
			</activity>
			<leg mode="WALK_LOC">
			</leg>
			<activity type="univ" facility="12" x="41.5643098712815" y="-112.057550919433" end_time="17:04:53" >
			</activity>
			<leg mode="WALK_LRF">
			</leg>
			<activity type="escort" facility="9" x="41.5643098712815" y="-112.057550919433" end_time="17:53:55" >
			</activity>
			<leg mode="WALK_LRF">
			</leg>
			<activity type="Home" facility="17" x="41.5876212032271" y="-112.051691896593" end_time="08:31:00" >
			</activity>
			<leg mode="SHARED2FREE">
			</leg>
			<activity type="escort" facility="13" x="41.5643098712815" y="-112.057550919433" end_time="08:53:29" >
			</activity>
			<leg mode="WALK">
			</leg>
			<activity type="work" facility="1" x="41.5869833144902" y="-112.078520044628" end_time="13:01:31" >
			</activity>
			<leg mode="WALK">
			</leg>
			<activity type="shopping" facility="4" x="41.5628339002873" y="-112.100357373772" end_time="14:52:00" >
			</activity>
			<leg mode="WALK_LRF">
			</leg>
			<activity type="Home" facility="17" >
			</activity>
		</plan>

	</person>

<!-- ====================================================================== -->

	<person id="1958677">
		<attributes>
			<attribute name="age" class="java.lang.String">40</attribute>
			<attribute name="sex" class="java.lang.String">2</attribute>
		</attributes>
		<plan selected="yes">
			<activity type="Home" facility="9" x="41.5643098712815" y="-112.057550919433" end_time="10:52:08" >
			</activity>
			<leg mode="WALK">
			</leg>
			<activity type="social" facility="7" x="41.5643098712815" y="-112.057550919433" end_time="11:01:32" >
			</activity>
			<leg mode="WALK">
			</leg>
			<activity type="Home" facility="9" >
			</activity>
		</plan>

	</person>

<!-- ====================================================================== -->

	<person id="1958678">
		<attributes>
			<attribute name="age" class="java.lang.String">4</attribute>
			<attribute name="sex" class="java.lang.String">1</attribute>
		</attributes>
		<plan selected="yes">
			<activity type="Home" facility="9" x="41.5643098712815" y="-112.057550919433" end_time="07:08:24" >
			</activity>
			<leg mode="WALK">
			</leg>
			<activity type="school" facility="9" x="41.5643098712815" y="-112.057550919433" end_time="17:12:51" >
			</activity>
			<leg mode="WALK">
			</leg>
			<activity type="Home" facility="9" >